/*---------------------------------------------------------------------------*\
  =========                 |
  \\      /  F ield         | OpenFOAM: The Open Source CFD Toolbox
   \\    /   O peration     | Website:  https://openfoam.org
    \\  /    A nd           | Version:  7
     \\/     M anipulation  |
\*---------------------------------------------------------------------------*/
Build  : 7
Exec   : icoFoam
Date   : Feb 11 2026
Time   : 16:21:06
Host   : "c201-027.frontera.tacc.utexas.edu"
PID    : 258583
I/O    : uncollated
Case   : /work2/11329/kdn849/frontera/COE-347-SP26/cavity160.100.AR2
nProcs : 1
sigFpe : Enabling floating point exception trapping (FOAM_SIGFPE).
fileModificationChecking : Monitoring run-time modified files using timeStampMaster (fileModificationSkew 10)
allowSystemOperations : Allowing user-supplied system call operations

// * * * * * * * * * * * * * * * * * * * * * * * * * * * * * * * * * * * * * //
Create time

Create mesh for time = 0

Reading transportProperties

Reading field p

Reading field U

Reading/calculating face flux field phi


Starting time loop

Time = 0.000625

Courant Number mean: 0 max: 0
smoothSolver:  Solving for Ux, Initial residual = 1, Final residual = 7.68518e-06, No Iterations 17
smoothSolver:  Solving for Uy, Initial residual = 0, Final residual = 0, No Iterations 0
DICPCG:  Solving for p, Initial residual = 1, Final residual = 0.0454001, No Iterations 149
time step continuity errors : sum local = 2.11301e-06, global = -4.27032e-21, cumulative = -4.27032e-21
DICPCG:  Solving for p, Initial residual = 0.577714, Final residual = 8.91925e-07, No Iterations 406
time step continuity errors : sum local = 6.64954e-11, global = -4.80806e-21, cumulative = -9.07838e-21
ExecutionTime = 0.86 s  ClockTime = 1 s

Time = 0.00125

Courant Number mean: 0.00883692 max: 0.623785
smoothSolver:  Solving for Ux, Initial residual = 0.198125, Final residual = 8.77723e-06, No Iterations 17
smoothSolver:  Solving for Uy, Initial residual = 0.318808, Final residual = 8.51428e-06, No Iterations 19
DICPCG:  Solving for p, Initial residual = 0.401578, Final residual = 0.0198532, No Iterations 146
time step continuity errors : sum local = 1.57703e-06, global = -2.66893e-20, cumulative = -3.57677e-20
DICPCG:  Solving for p, Initial residual = 0.320799, Final residual = 9.35132e-07, No Iterations 399
time step continuity errors : sum local = 7.35922e-11, global = -5.168e-21, cumulative = -4.09357e-20
ExecutionTime = 1.43 s  ClockTime = 1 s

Time = 0.001875

Courant Number mean: 0.0137483 max: 0.785371
smoothSolver:  Solving for Ux, Initial residual = 0.0870833, Final residual = 7.56385e-06, No Iterations 16
smoothSolver:  Solving for Uy, Initial residual = 0.144132, Final residual = 6.95655e-06, No Iterations 18
DICPCG:  Solving for p, Initial residual = 0.180406, Final residual = 0.00864533, No Iterations 296
time step continuity errors : sum local = 5.85546e-07, global = 7.03621e-21, cumulative = -3.38995e-20
DICPCG:  Solving for p, Initial residual = 0.140002, Final residual = 9.57864e-07, No Iterations 390
time step continuity errors : sum local = 6.74473e-11, global = -1.31517e-20, cumulative = -4.70512e-20
ExecutionTime = 2.11 s  ClockTime = 2 s

Time = 0.0025

Courant Number mean: 0.0171542 max: 0.841237
smoothSolver:  Solving for Ux, Initial residual = 0.054899, Final residual = 9.2401e-06, No Iterations 15
smoothSolver:  Solving for Uy, Initial residual = 0.0879884, Final residual = 7.48146e-06, No Iterations 17
DICPCG:  Solving for p, Initial residual = 0.087134, Final residual = 0.00428321, No Iterations 140
time step continuity errors : sum local = 2.91936e-07, global = 1.59547e-21, cumulative = -4.54557e-20
DICPCG:  Solving for p, Initial residual = 0.0697773, Final residual = 9.54064e-07, No Iterations 382
time step continuity errors : sum local = 6.20211e-11, global = -1.17923e-20, cumulative = -5.7248e-20
ExecutionTime = 2.65 s  ClockTime = 3 s

Time = 0.003125

Courant Number mean: 0.019857 max: 0.868116
smoothSolver:  Solving for Ux, Initial residual = 0.0405592, Final residual = 7.30131e-06, No Iterations 15
smoothSolver:  Solving for Uy, Initial residual = 0.064086, Final residual = 9.58762e-06, No Iterations 16
DICPCG:  Solving for p, Initial residual = 0.0594327, Final residual = 0.0028195, No Iterations 296
time step continuity errors : sum local = 1.81216e-07, global = 2.92385e-21, cumulative = -5.43241e-20
DICPCG:  Solving for p, Initial residual = 0.0470184, Final residual = 9.85729e-07, No Iterations 379
time step continuity errors : sum local = 6.4308e-11, global = 9.02651e-21, cumulative = -4.52976e-20
ExecutionTime = 3.32 s  ClockTime = 3 s

Time = 0.00375

Courant Number mean: 0.0221431 max: 0.884328
smoothSolver:  Solving for Ux, Initial residual = 0.0324476, Final residual = 6.14657e-06, No Iterations 15
smoothSolver:  Solving for Uy, Initial residual = 0.0497735, Final residual = 7.53058e-06, No Iterations 16
DICPCG:  Solving for p, Initial residual = 0.0435477, Final residual = 0.00216207, No Iterations 126
time step continuity errors : sum local = 1.43007e-07, global = -2.70747e-20, cumulative = -7.23724e-20
DICPCG:  Solving for p, Initial residual = 0.0351975, Final residual = 8.66569e-07, No Iterations 375
time step continuity errors : sum local = 5.60413e-11, global = -1.43069e-20, cumulative = -8.66793e-20
ExecutionTime = 3.85 s  ClockTime = 4 s

Time = 0.004375

Courant Number mean: 0.02415 max: 0.89547
smoothSolver:  Solving for Ux, Initial residual = 0.0270553, Final residual = 9.31679e-06, No Iterations 14
smoothSolver:  Solving for Uy, Initial residual = 0.0411078, Final residual = 6.27218e-06, No Iterations 16
DICPCG:  Solving for p, Initial residual = 0.0367017, Final residual = 0.00180031, No Iterations 142
time step continuity errors : sum local = 1.31736e-07, global = -8.23844e-21, cumulative = -9.49177e-20
DICPCG:  Solving for p, Initial residual = 0.0295957, Final residual = 8.5034e-07, No Iterations 374
time step continuity errors : sum local = 5.52671e-11, global = 3.08937e-20, cumulative = -6.4024e-20
ExecutionTime = 4.4 s  ClockTime = 4 s

Time = 0.005

Courant Number mean: 0.025943 max: 0.903748
smoothSolver:  Solving for Ux, Initial residual = 0.0234648, Final residual = 8.34833e-06, No Iterations 14
smoothSolver:  Solving for Uy, Initial residual = 0.0348864, Final residual = 9.26143e-06, No Iterations 15
DICPCG:  Solving for p, Initial residual = 0.0318586, Final residual = 0.0014893, No Iterations 295
time step continuity errors : sum local = 9.7094e-08, global = 2.47134e-21, cumulative = -6.15527e-20
DICPCG:  Solving for p, Initial residual = 0.0258525, Final residual = 9.97387e-07, No Iterations 372
time step continuity errors : sum local = 6.57114e-11, global = 1.84629e-20, cumulative = -4.30898e-20
ExecutionTime = 5.06 s  ClockTime = 5 s

Time = 0.005625

Courant Number mean: 0.0275787 max: 0.910217
smoothSolver:  Solving for Ux, Initial residual = 0.0204565, Final residual = 7.44212e-06, No Iterations 14
smoothSolver:  Solving for Uy, Initial residual = 0.0301642, Final residual = 8.0565e-06, No Iterations 15
DICPCG:  Solving for p, Initial residual = 0.0261759, Final residual = 0.00128109, No Iterations 120
time step continuity errors : sum local = 8.62548e-08, global = 1.45852e-20, cumulative = -2.85046e-20
DICPCG:  Solving for p, Initial residual = 0.0213804, Final residual = 9.85899e-07, No Iterations 371
time step continuity errors : sum local = 6.45108e-11, global = 1.39088e-20, cumulative = -1.45958e-20
ExecutionTime = 5.55 s  ClockTime = 6 s

Time = 0.00625

Courant Number mean: 0.0290802 max: 0.915452
smoothSolver:  Solving for Ux, Initial residual = 0.018236, Final residual = 6.7705e-06, No Iterations 14
smoothSolver:  Solving for Uy, Initial residual = 0.0266608, Final residual = 7.15082e-06, No Iterations 15
DICPCG:  Solving for p, Initial residual = 0.0236582, Final residual = 0.00117065, No Iterations 119
time step continuity errors : sum local = 8.2438e-08, global = 1.86714e-21, cumulative = -1.27287e-20
DICPCG:  Solving for p, Initial residual = 0.0199589, Final residual = 8.90137e-07, No Iterations 371
time step continuity errors : sum local = 5.84931e-11, global = 2.25319e-20, cumulative = 9.80317e-21
ExecutionTime = 6.05 s  ClockTime = 6 s

Time = 0.006875

Courant Number mean: 0.0304776 max: 0.919802
smoothSolver:  Solving for Ux, Initial residual = 0.0164341, Final residual = 6.20255e-06, No Iterations 14
smoothSolver:  Solving for Uy, Initial residual = 0.023983, Final residual = 6.45355e-06, No Iterations 15
DICPCG:  Solving for p, Initial residual = 0.0215699, Final residual = 0.00104639, No Iterations 278
time step continuity errors : sum local = 6.88271e-08, global = 7.31608e-21, cumulative = 1.71192e-20
DICPCG:  Solving for p, Initial residual = 0.017712, Final residual = 9.08823e-07, No Iterations 370
time step continuity errors : sum local = 6.01071e-11, global = -1.7245e-20, cumulative = -1.25738e-22
ExecutionTime = 6.7 s  ClockTime = 7 s

Time = 0.0075

Courant Number mean: 0.0317831 max: 0.923492
smoothSolver:  Solving for Ux, Initial residual = 0.0149952, Final residual = 5.75127e-06, No Iterations 14
smoothSolver:  Solving for Uy, Initial residual = 0.0215785, Final residual = 5.82619e-06, No Iterations 15
DICPCG:  Solving for p, Initial residual = 0.0186533, Final residual = 0.000912748, No Iterations 115
time step continuity errors : sum local = 6.17168e-08, global = -7.74555e-21, cumulative = -7.87129e-21
DICPCG:  Solving for p, Initial residual = 0.015471, Final residual = 9.5348e-07, No Iterations 369
time step continuity errors : sum local = 6.29479e-11, global = -3.34701e-21, cumulative = -1.12183e-20
ExecutionTime = 7.19 s  ClockTime = 7 s

Time = 0.008125

Courant Number mean: 0.0330084 max: 0.926673
smoothSolver:  Solving for Ux, Initial residual = 0.0137456, Final residual = 9.31984e-06, No Iterations 13
smoothSolver:  Solving for Uy, Initial residual = 0.0197429, Final residual = 9.23951e-06, No Iterations 14
DICPCG:  Solving for p, Initial residual = 0.0175689, Final residual = 0.000875053, No Iterations 118
time step continuity errors : sum local = 6.42394e-08, global = -7.23225e-21, cumulative = -1.84505e-20
DICPCG:  Solving for p, Initial residual = 0.0144417, Final residual = 9.28951e-07, No Iterations 368
time step continuity errors : sum local = 6.15033e-11, global = 5.59449e-21, cumulative = -1.2856e-20
ExecutionTime = 7.68 s  ClockTime = 8 s

Time = 0.00875

Courant Number mean: 0.0341697 max: 0.929452
smoothSolver:  Solving for Ux, Initial residual = 0.012763, Final residual = 8.7579e-06, No Iterations 13
smoothSolver:  Solving for Uy, Initial residual = 0.0181564, Final residual = 8.50897e-06, No Iterations 14
DICPCG:  Solving for p, Initial residual = 0.0167915, Final residual = 0.000797446, No Iterations 277
time step continuity errors : sum local = 5.30048e-08, global = -2.59485e-21, cumulative = -1.54509e-20
DICPCG:  Solving for p, Initial residual = 0.0138856, Final residual = 9.6918e-07, No Iterations 366
time step continuity errors : sum local = 6.454e-11, global = -1.01968e-20, cumulative = -2.56477e-20
ExecutionTime = 8.34 s  ClockTime = 8 s

Time = 0.009375

Courant Number mean: 0.0352694 max: 0.931907
smoothSolver:  Solving for Ux, Initial residual = 0.0118303, Final residual = 8.1942e-06, No Iterations 13
smoothSolver:  Solving for Uy, Initial residual = 0.0167712, Final residual = 7.87976e-06, No Iterations 14
DICPCG:  Solving for p, Initial residual = 0.0146396, Final residual = 0.000729756, No Iterations 112
time step continuity errors : sum local = 4.9335e-08, global = 1.05261e-21, cumulative = -2.45951e-20
DICPCG:  Solving for p, Initial residual = 0.0121843, Final residual = 9.44107e-07, No Iterations 366
time step continuity errors : sum local = 6.27085e-11, global = 4.50516e-20, cumulative = 2.04565e-20
ExecutionTime = 8.84 s  ClockTime = 9 s

Time = 0.01

Courant Number mean: 0.0363149 max: 0.934096
smoothSolver:  Solving for Ux, Initial residual = 0.0110429, Final residual = 7.71533e-06, No Iterations 13
smoothSolver:  Solving for Uy, Initial residual = 0.0156066, Final residual = 7.34426e-06, No Iterations 14
DICPCG:  Solving for p, Initial residual = 0.0140747, Final residual = 0.000698114, No Iterations 113
time step continuity errors : sum local = 4.78759e-08, global = 9.10974e-21, cumulative = 2.95662e-20
DICPCG:  Solving for p, Initial residual = 0.012017, Final residual = 9.11014e-07, No Iterations 365
time step continuity errors : sum local = 6.06489e-11, global = -9.21179e-21, cumulative = 2.03544e-20
ExecutionTime = 9.34 s  ClockTime = 9 s

Time = 0.010625

Courant Number mean: 0.0373165 max: 0.936065
smoothSolver:  Solving for Ux, Initial residual = 0.0103534, Final residual = 7.28853e-06, No Iterations 13
smoothSolver:  Solving for Uy, Initial residual = 0.0146121, Final residual = 6.88607e-06, No Iterations 14
DICPCG:  Solving for p, Initial residual = 0.0131957, Final residual = 0.000633756, No Iterations 176
time step continuity errors : sum local = 4.60164e-08, global = -1.50637e-20, cumulative = 5.29074e-21
DICPCG:  Solving for p, Initial residual = 0.0110011, Final residual = 9.41299e-07, No Iterations 364
time step continuity errors : sum local = 6.27411e-11, global = -2.47412e-21, cumulative = 2.81662e-21
ExecutionTime = 9.89 s  ClockTime = 10 s

Time = 0.01125

Courant Number mean: 0.0382744 max: 0.937847
smoothSolver:  Solving for Ux, Initial residual = 0.00978744, Final residual = 6.94422e-06, No Iterations 13
smoothSolver:  Solving for Uy, Initial residual = 0.0136939, Final residual = 6.4576e-06, No Iterations 14
DICPCG:  Solving for p, Initial residual = 0.0125951, Final residual = 0.000620793, No Iterations 275
time step continuity errors : sum local = 4.15466e-08, global = -4.64065e-21, cumulative = -1.82403e-21
DICPCG:  Solving for p, Initial residual = 0.0104974, Final residual = 9.97349e-07, No Iterations 362
time step continuity errors : sum local = 6.67259e-11, global = -1.57063e-21, cumulative = -3.39466e-21
ExecutionTime = 10.52 s  ClockTime = 11 s

Time = 0.011875

Courant Number mean: 0.0391907 max: 0.939471
smoothSolver:  Solving for Ux, Initial residual = 0.00922039, Final residual = 6.58235e-06, No Iterations 13
smoothSolver:  Solving for Uy, Initial residual = 0.0128975, Final residual = 6.09272e-06, No Iterations 14
DICPCG:  Solving for p, Initial residual = 0.0114138, Final residual = 0.000550968, No Iterations 110
time step continuity errors : sum local = 3.7314e-08, global = 3.64509e-20, cumulative = 3.30562e-20
DICPCG:  Solving for p, Initial residual = 0.00956383, Final residual = 9.84368e-07, No Iterations 361
time step continuity errors : sum local = 6.57742e-11, global = -2.27538e-21, cumulative = 3.07808e-20
ExecutionTime = 11.02 s  ClockTime = 11 s

Time = 0.0125

Courant Number mean: 0.0400747 max: 0.940958
smoothSolver:  Solving for Ux, Initial residual = 0.00872789, Final residual = 6.26779e-06, No Iterations 13
smoothSolver:  Solving for Uy, Initial residual = 0.012193, Final residual = 9.96282e-06, No Iterations 13
DICPCG:  Solving for p, Initial residual = 0.0111138, Final residual = 0.000549875, No Iterations 111
time step continuity errors : sum local = 3.73194e-08, global = 2.62862e-20, cumulative = 5.70671e-20
DICPCG:  Solving for p, Initial residual = 0.00953088, Final residual = 9.90285e-07, No Iterations 360
time step continuity errors : sum local = 6.6282e-11, global = -2.64241e-20, cumulative = 3.0643e-20
ExecutionTime = 11.62 s  ClockTime = 12 s

Time = 0.013125

Courant Number mean: 0.040927 max: 0.942326
smoothSolver:  Solving for Ux, Initial residual = 0.00828792, Final residual = 5.98284e-06, No Iterations 13
smoothSolver:  Solving for Uy, Initial residual = 0.0115647, Final residual = 9.45821e-06, No Iterations 13
DICPCG:  Solving for p, Initial residual = 0.0105512, Final residual = 0.000503734, No Iterations 166
time step continuity errors : sum local = 3.45685e-08, global = 1.23915e-20, cumulative = 4.30344e-20
DICPCG:  Solving for p, Initial residual = 0.00884713, Final residual = 9.65636e-07, No Iterations 359
time step continuity errors : sum local = 6.47148e-11, global = 3.66668e-21, cumulative = 4.67011e-20
ExecutionTime = 12.15 s  ClockTime = 12 s

Time = 0.01375

Courant Number mean: 0.0417481 max: 0.943592
smoothSolver:  Solving for Ux, Initial residual = 0.00791316, Final residual = 5.74429e-06, No Iterations 13
smoothSolver:  Solving for Uy, Initial residual = 0.0109672, Final residual = 8.97454e-06, No Iterations 13
DICPCG:  Solving for p, Initial residual = 0.0101431, Final residual = 0.00050423, No Iterations 111
time step continuity errors : sum local = 3.71724e-08, global = -1.52464e-20, cumulative = 3.14547e-20
DICPCG:  Solving for p, Initial residual = 0.0084977, Final residual = 9.67951e-07, No Iterations 357
time step continuity errors : sum local = 6.4941e-11, global = -8.6049e-21, cumulative = 2.28498e-20
ExecutionTime = 12.62 s  ClockTime = 13 s

Time = 0.014375

Courant Number mean: 0.04254 max: 0.944766
smoothSolver:  Solving for Ux, Initial residual = 0.00753056, Final residual = 9.55255e-06, No Iterations 12
smoothSolver:  Solving for Uy, Initial residual = 0.0105173, Final residual = 8.60899e-06, No Iterations 13
DICPCG:  Solving for p, Initial residual = 0.0100238, Final residual = 0.000468932, No Iterations 272
time step continuity errors : sum local = 3.15083e-08, global = -1.33137e-20, cumulative = 9.53613e-21
DICPCG:  Solving for p, Initial residual = 0.00838461, Final residual = 9.931e-07, No Iterations 356
time step continuity errors : sum local = 6.68637e-11, global = 2.13728e-21, cumulative = 1.16734e-20
ExecutionTime = 13.25 s  ClockTime = 13 s

Time = 0.015

Courant Number mean: 0.0433085 max: 0.945859
smoothSolver:  Solving for Ux, Initial residual = 0.00720877, Final residual = 9.18534e-06, No Iterations 12
smoothSolver:  Solving for Uy, Initial residual = 0.00998416, Final residual = 8.18197e-06, No Iterations 13
DICPCG:  Solving for p, Initial residual = 0.00903455, Final residual = 0.000443331, No Iterations 107
time step continuity errors : sum local = 3.0613e-08, global = -1.36836e-21, cumulative = 1.03051e-20
DICPCG:  Solving for p, Initial residual = 0.00762998, Final residual = 9.41282e-07, No Iterations 355
time step continuity errors : sum local = 6.32703e-11, global = -8.75058e-21, cumulative = 1.55447e-21
ExecutionTime = 13.74 s  ClockTime = 14 s

Time = 0.015625

Courant Number mean: 0.0440536 max: 0.946881
smoothSolver:  Solving for Ux, Initial residual = 0.00689275, Final residual = 8.814e-06, No Iterations 12
smoothSolver:  Solving for Uy, Initial residual = 0.00956897, Final residual = 7.84549e-06, No Iterations 13
DICPCG:  Solving for p, Initial residual = 0.00894197, Final residual = 0.000421481, No Iterations 271
time step continuity errors : sum local = 2.83426e-08, global = -1.8336e-21, cumulative = -2.79127e-22
DICPCG:  Solving for p, Initial residual = 0.00749879, Final residual = 9.79763e-07, No Iterations 354
time step continuity errors : sum local = 6.5962e-11, global = -4.44802e-20, cumulative = -4.47594e-20
ExecutionTime = 14.36 s  ClockTime = 14 s

Time = 0.01625

Courant Number mean: 0.0447758 max: 0.947839
smoothSolver:  Solving for Ux, Initial residual = 0.00662231, Final residual = 8.50141e-06, No Iterations 12
smoothSolver:  Solving for Uy, Initial residual = 0.00915244, Final residual = 7.50926e-06, No Iterations 13
DICPCG:  Solving for p, Initial residual = 0.0082999, Final residual = 0.000403473, No Iterations 106
time step continuity errors : sum local = 2.76397e-08, global = -3.40453e-20, cumulative = -7.88047e-20
DICPCG:  Solving for p, Initial residual = 0.00700366, Final residual = 9.92735e-07, No Iterations 353
time step continuity errors : sum local = 6.68435e-11, global = 1.62457e-20, cumulative = -6.25589e-20
ExecutionTime = 14.82 s  ClockTime = 15 s

Time = 0.016875

Courant Number mean: 0.0454759 max: 0.948738
smoothSolver:  Solving for Ux, Initial residual = 0.00635377, Final residual = 8.18054e-06, No Iterations 12
smoothSolver:  Solving for Uy, Initial residual = 0.00879896, Final residual = 7.22185e-06, No Iterations 13
DICPCG:  Solving for p, Initial residual = 0.0082681, Final residual = 0.000404513, No Iterations 149
time step continuity errors : sum local = 2.94955e-08, global = -9.48536e-21, cumulative = -7.20443e-20
DICPCG:  Solving for p, Initial residual = 0.0069635, Final residual = 9.51239e-07, No Iterations 353
time step continuity errors : sum local = 6.41214e-11, global = 1.67423e-20, cumulative = -5.5302e-20
ExecutionTime = 15.33 s  ClockTime = 15 s

Time = 0.0175

Courant Number mean: 0.0461564 max: 0.949586
smoothSolver:  Solving for Ux, Initial residual = 0.00614409, Final residual = 7.93975e-06, No Iterations 12
smoothSolver:  Solving for Uy, Initial residual = 0.00845045, Final residual = 6.93501e-06, No Iterations 13
DICPCG:  Solving for p, Initial residual = 0.00807031, Final residual = 0.000382301, No Iterations 271
time step continuity errors : sum local = 2.58485e-08, global = 1.60162e-20, cumulative = -3.92858e-20
DICPCG:  Solving for p, Initial residual = 0.00678677, Final residual = 9.85564e-07, No Iterations 352
time step continuity errors : sum local = 6.65938e-11, global = 1.96909e-20, cumulative = -1.95949e-20
ExecutionTime = 15.98 s  ClockTime = 16 s

Time = 0.018125

Courant Number mean: 0.0468204 max: 0.950386
smoothSolver:  Solving for Ux, Initial residual = 0.0058975, Final residual = 7.64152e-06, No Iterations 12
smoothSolver:  Solving for Uy, Initial residual = 0.00813544, Final residual = 6.68307e-06, No Iterations 13
DICPCG:  Solving for p, Initial residual = 0.00746652, Final residual = 0.000370115, No Iterations 105
time step continuity errors : sum local = 2.52709e-08, global = 1.90187e-20, cumulative = -5.76219e-22
DICPCG:  Solving for p, Initial residual = 0.00632455, Final residual = 9.5615e-07, No Iterations 352
time step continuity errors : sum local = 6.4547e-11, global = 4.30453e-20, cumulative = 4.24691e-20
ExecutionTime = 16.47 s  ClockTime = 17 s

Time = 0.01875

Courant Number mean: 0.0474669 max: 0.951143
smoothSolver:  Solving for Ux, Initial residual = 0.0056839, Final residual = 7.38407e-06, No Iterations 12
smoothSolver:  Solving for Uy, Initial residual = 0.00784624, Final residual = 6.4476e-06, No Iterations 13
DICPCG:  Solving for p, Initial residual = 0.00746239, Final residual = 0.00037096, No Iterations 117
time step continuity errors : sum local = 2.52228e-08, global = -7.65906e-21, cumulative = 3.48101e-20
DICPCG:  Solving for p, Initial residual = 0.00627506, Final residual = 9.07958e-07, No Iterations 352
time step continuity errors : sum local = 6.13415e-11, global = 4.76633e-20, cumulative = 8.24734e-20
ExecutionTime = 16.96 s  ClockTime = 17 s

Time = 0.019375

Courant Number mean: 0.0480964 max: 0.951861
smoothSolver:  Solving for Ux, Initial residual = 0.00549216, Final residual = 7.15411e-06, No Iterations 12
smoothSolver:  Solving for Uy, Initial residual = 0.00757489, Final residual = 6.22732e-06, No Iterations 13
DICPCG:  Solving for p, Initial residual = 0.00722862, Final residual = 0.000335329, No Iterations 163
time step continuity errors : sum local = 2.3167e-08, global = -1.70801e-20, cumulative = 6.53933e-20
DICPCG:  Solving for p, Initial residual = 0.00610504, Final residual = 9.69554e-07, No Iterations 351
time step continuity errors : sum local = 6.55557e-11, global = 1.91352e-20, cumulative = 8.45285e-20
ExecutionTime = 17.49 s  ClockTime = 18 s

Time = 0.02

Courant Number mean: 0.0487094 max: 0.952542
smoothSolver:  Solving for Ux, Initial residual = 0.00531297, Final residual = 6.93884e-06, No Iterations 12
smoothSolver:  Solving for Uy, Initial residual = 0.007315, Final residual = 6.01493e-06, No Iterations 13
DICPCG:  Solving for p, Initial residual = 0.00698139, Final residual = 0.000342118, No Iterations 102
time step continuity errors : sum local = 2.41697e-08, global = -9.54888e-21, cumulative = 7.49796e-20
DICPCG:  Solving for p, Initial residual = 0.00589887, Final residual = 9.30283e-07, No Iterations 351
time step continuity errors : sum local = 6.29469e-11, global = -4.13431e-21, cumulative = 7.08453e-20
ExecutionTime = 17.96 s  ClockTime = 18 s

Time = 0.020625

Courant Number mean: 0.0493073 max: 0.953191
smoothSolver:  Solving for Ux, Initial residual = 0.00513748, Final residual = 6.72398e-06, No Iterations 12
smoothSolver:  Solving for Uy, Initial residual = 0.00708338, Final residual = 5.82488e-06, No Iterations 13
DICPCG:  Solving for p, Initial residual = 0.00684808, Final residual = 0.000312059, No Iterations 270
time step continuity errors : sum local = 2.11704e-08, global = 4.19946e-20, cumulative = 1.1284e-19
DICPCG:  Solving for p, Initial residual = 0.00578305, Final residual = 9.90191e-07, No Iterations 350
time step continuity errors : sum local = 6.70708e-11, global = -1.15299e-20, cumulative = 1.0131e-19
ExecutionTime = 18.57 s  ClockTime = 19 s

Time = 0.02125

Courant Number mean: 0.049893 max: 0.953809
smoothSolver:  Solving for Ux, Initial residual = 0.00497656, Final residual = 6.52812e-06, No Iterations 12
smoothSolver:  Solving for Uy, Initial residual = 0.00685574, Final residual = 9.7419e-06, No Iterations 12
DICPCG:  Solving for p, Initial residual = 0.00639596, Final residual = 0.000309937, No Iterations 104
time step continuity errors : sum local = 2.11188e-08, global = -3.27217e-22, cumulative = 1.00983e-19
DICPCG:  Solving for p, Initial residual = 0.00544014, Final residual = 9.56576e-07, No Iterations 350
time step continuity errors : sum local = 6.47809e-11, global = 9.55878e-21, cumulative = 1.10542e-19
ExecutionTime = 19.05 s  ClockTime = 19 s

Time = 0.021875

Courant Number mean: 0.0504655 max: 0.954399
smoothSolver:  Solving for Ux, Initial residual = 0.00482021, Final residual = 6.33621e-06, No Iterations 12
smoothSolver:  Solving for Uy, Initial residual = 0.00664935, Final residual = 9.45028e-06, No Iterations 12
DICPCG:  Solving for p, Initial residual = 0.0064039, Final residual = 0.000311825, No Iterations 144
time step continuity errors : sum local = 2.13307e-08, global = 4.17417e-22, cumulative = 1.10959e-19
DICPCG:  Solving for p, Initial residual = 0.00540832, Final residual = 9.23845e-07, No Iterations 350
time step continuity errors : sum local = 6.26145e-11, global = 2.39207e-20, cumulative = 1.3488e-19
ExecutionTime = 19.59 s  ClockTime = 20 s

Time = 0.0225

Courant Number mean: 0.0510249 max: 0.954963
smoothSolver:  Solving for Ux, Initial residual = 0.00468674, Final residual = 6.17458e-06, No Iterations 12
smoothSolver:  Solving for Uy, Initial residual = 0.00644498, Final residual = 9.16101e-06, No Iterations 12
DICPCG:  Solving for p, Initial residual = 0.0062067, Final residual = 0.000302228, No Iterations 165
time step continuity errors : sum local = 2.23051e-08, global = -1.46347e-20, cumulative = 1.20245e-19
DICPCG:  Solving for p, Initial residual = 0.00526539, Final residual = 9.11817e-07, No Iterations 350
time step continuity errors : sum local = 6.18255e-11, global = 4.22597e-20, cumulative = 1.62505e-19
ExecutionTime = 20.12 s  ClockTime = 20 s

Time = 0.023125

Courant Number mean: 0.0515715 max: 0.955503
smoothSolver:  Solving for Ux, Initial residual = 0.00454463, Final residual = 5.99613e-06, No Iterations 12
smoothSolver:  Solving for Uy, Initial residual = 0.00627746, Final residual = 8.92177e-06, No Iterations 12
DICPCG:  Solving for p, Initial residual = 0.00623852, Final residual = 0.000310938, No Iterations 269
time step continuity errors : sum local = 2.10998e-08, global = 7.54052e-21, cumulative = 1.70045e-19
DICPCG:  Solving for p, Initial residual = 0.00527574, Final residual = 8.67106e-07, No Iterations 350
time step continuity errors : sum local = 5.88814e-11, global = -1.89968e-21, cumulative = 1.68146e-19
ExecutionTime = 20.76 s  ClockTime = 21 s

Time = 0.02375

Courant Number mean: 0.0521058 max: 0.956021
smoothSolver:  Solving for Ux, Initial residual = 0.00441692, Final residual = 5.83997e-06, No Iterations 12
smoothSolver:  Solving for Uy, Initial residual = 0.00608647, Final residual = 8.65512e-06, No Iterations 12
DICPCG:  Solving for p, Initial residual = 0.00582586, Final residual = 0.000289088, No Iterations 101
time step continuity errors : sum local = 2.01201e-08, global = 1.88222e-21, cumulative = 1.70028e-19
DICPCG:  Solving for p, Initial residual = 0.0049507, Final residual = 8.80114e-07, No Iterations 350
time step continuity errors : sum local = 5.97285e-11, global = -3.09621e-20, cumulative = 1.39066e-19
ExecutionTime = 21.24 s  ClockTime = 21 s

Time = 0.024375

Courant Number mean: 0.0526295 max: 0.956517
smoothSolver:  Solving for Ux, Initial residual = 0.00428887, Final residual = 9.85849e-06, No Iterations 11
smoothSolver:  Solving for Uy, Initial residual = 0.00592839, Final residual = 8.43103e-06, No Iterations 12
DICPCG:  Solving for p, Initial residual = 0.00583028, Final residual = 0.000289932, No Iterations 190
time step continuity errors : sum local = 2.19049e-08, global = -3.50647e-20, cumulative = 1.04001e-19
DICPCG:  Solving for p, Initial residual = 0.00496793, Final residual = 8.6994e-07, No Iterations 350
time step continuity errors : sum local = 5.90757e-11, global = -8.47577e-21, cumulative = 9.55251e-20
ExecutionTime = 21.79 s  ClockTime = 22 s

Time = 0.025

Courant Number mean: 0.0531434 max: 0.956994
smoothSolver:  Solving for Ux, Initial residual = 0.00418745, Final residual = 9.64181e-06, No Iterations 11
smoothSolver:  Solving for Uy, Initial residual = 0.00576703, Final residual = 8.19878e-06, No Iterations 12
DICPCG:  Solving for p, Initial residual = 0.00581195, Final residual = 0.000287302, No Iterations 269
time step continuity errors : sum local = 1.95466e-08, global = 2.07974e-20, cumulative = 1.16323e-19
DICPCG:  Solving for p, Initial residual = 0.00492367, Final residual = 9.74975e-07, No Iterations 350
time step continuity errors : sum local = 6.62978e-11, global = 5.337e-22, cumulative = 1.16856e-19
ExecutionTime = 22.54 s  ClockTime = 23 s

Time = 0.025625

Courant Number mean: 0.0536473 max: 0.957453
smoothSolver:  Solving for Ux, Initial residual = 0.00406861, Final residual = 9.38256e-06, No Iterations 11
smoothSolver:  Solving for Uy, Initial residual = 0.00561308, Final residual = 7.98514e-06, No Iterations 12
DICPCG:  Solving for p, Initial residual = 0.00544276, Final residual = 0.000262915, No Iterations 102
time step continuity errors : sum local = 1.81493e-08, global = 6.36004e-21, cumulative = 1.23216e-19
DICPCG:  Solving for p, Initial residual = 0.00461876, Final residual = 8.96993e-07, No Iterations 350
time step continuity errors : sum local = 6.09632e-11, global = 3.09012e-20, cumulative = 1.54118e-19
ExecutionTime = 23.03 s  ClockTime = 23 s

Time = 0.02625

Courant Number mean: 0.0541412 max: 0.957894
smoothSolver:  Solving for Ux, Initial residual = 0.00396072, Final residual = 9.14637e-06, No Iterations 11
smoothSolver:  Solving for Uy, Initial residual = 0.00547254, Final residual = 7.78578e-06, No Iterations 12
DICPCG:  Solving for p, Initial residual = 0.00541124, Final residual = 0.000267064, No Iterations 103
time step continuity errors : sum local = 1.85812e-08, global = -1.81819e-20, cumulative = 1.35936e-19
DICPCG:  Solving for p, Initial residual = 0.00469008, Final residual = 8.61326e-07, No Iterations 350
time step continuity errors : sum local = 5.8568e-11, global = -3.25734e-21, cumulative = 1.32678e-19
ExecutionTime = 23.51 s  ClockTime = 24 s

Time = 0.026875

Courant Number mean: 0.0546255 max: 0.958319
smoothSolver:  Solving for Ux, Initial residual = 0.00385983, Final residual = 8.92442e-06, No Iterations 11
smoothSolver:  Solving for Uy, Initial residual = 0.00533937, Final residual = 7.59763e-06, No Iterations 12
DICPCG:  Solving for p, Initial residual = 0.00527345, Final residual = 0.000263426, No Iterations 150
time step continuity errors : sum local = 1.86154e-08, global = -3.59427e-21, cumulative = 1.29084e-19
DICPCG:  Solving for p, Initial residual = 0.00448055, Final residual = 8.46899e-07, No Iterations 350
time step continuity errors : sum local = 5.76135e-11, global = 2.99134e-20, cumulative = 1.58997e-19
ExecutionTime = 24.03 s  ClockTime = 24 s

Time = 0.0275

Courant Number mean: 0.0551 max: 0.95873
smoothSolver:  Solving for Ux, Initial residual = 0.00377786, Final residual = 8.74923e-06, No Iterations 11
smoothSolver:  Solving for Uy, Initial residual = 0.00520368, Final residual = 7.40309e-06, No Iterations 12
DICPCG:  Solving for p, Initial residual = 0.00523398, Final residual = 0.000245669, No Iterations 270
time step continuity errors : sum local = 1.67778e-08, global = 4.72884e-20, cumulative = 2.06286e-19
DICPCG:  Solving for p, Initial residual = 0.0044333, Final residual = 8.79314e-07, No Iterations 350
time step continuity errors : sum local = 5.98704e-11, global = -3.66304e-20, cumulative = 1.69655e-19
ExecutionTime = 24.66 s  ClockTime = 25 s

Time = 0.028125

Courant Number mean: 0.0555654 max: 0.959126
smoothSolver:  Solving for Ux, Initial residual = 0.00367769, Final residual = 8.52688e-06, No Iterations 11
smoothSolver:  Solving for Uy, Initial residual = 0.00508352, Final residual = 7.23498e-06, No Iterations 12
DICPCG:  Solving for p, Initial residual = 0.00494301, Final residual = 0.000246744, No Iterations 103
time step continuity errors : sum local = 1.68514e-08, global = -2.9137e-21, cumulative = 1.66742e-19
DICPCG:  Solving for p, Initial residual = 0.00420776, Final residual = 8.57172e-07, No Iterations 350
time step continuity errors : sum local = 5.83493e-11, global = -1.15054e-20, cumulative = 1.55236e-19
ExecutionTime = 25.13 s  ClockTime = 25 s

Time = 0.02875

Courant Number mean: 0.0560237 max: 0.959509
smoothSolver:  Solving for Ux, Initial residual = 0.00358787, Final residual = 8.32841e-06, No Iterations 11
smoothSolver:  Solving for Uy, Initial residual = 0.00496904, Final residual = 7.07239e-06, No Iterations 12
DICPCG:  Solving for p, Initial residual = 0.00498743, Final residual = 0.000241628, No Iterations 147
time step continuity errors : sum local = 1.68947e-08, global = 4.23685e-20, cumulative = 1.97605e-19
DICPCG:  Solving for p, Initial residual = 0.00422202, Final residual = 8.4226e-07, No Iterations 350
time step continuity errors : sum local = 5.73681e-11, global = -2.684e-20, cumulative = 1.70765e-19
ExecutionTime = 25.65 s  ClockTime = 26 s

Time = 0.029375

Courant Number mean: 0.0564744 max: 0.959879
smoothSolver:  Solving for Ux, Initial residual = 0.00351377, Final residual = 8.16717e-06, No Iterations 11
smoothSolver:  Solving for Uy, Initial residual = 0.00485121, Final residual = 6.90389e-06, No Iterations 12
DICPCG:  Solving for p, Initial residual = 0.00486615, Final residual = 0.000228014, No Iterations 270
time step continuity errors : sum local = 1.55908e-08, global = -2.25108e-20, cumulative = 1.48254e-19
DICPCG:  Solving for p, Initial residual = 0.00412964, Final residual = 8.42657e-07, No Iterations 350
time step continuity errors : sum local = 5.7438e-11, global = 1.19365e-20, cumulative = 1.6019e-19
ExecutionTime = 26.27 s  ClockTime = 26 s

Time = 0.03

Courant Number mean: 0.0569172 max: 0.960237
smoothSolver:  Solving for Ux, Initial residual = 0.0034276, Final residual = 7.97479e-06, No Iterations 11
smoothSolver:  Solving for Uy, Initial residual = 0.00474673, Final residual = 6.75709e-06, No Iterations 12
DICPCG:  Solving for p, Initial residual = 0.00464906, Final residual = 0.000230759, No Iterations 102
time step continuity errors : sum local = 1.57422e-08, global = -7.08829e-21, cumulative = 1.53102e-19
DICPCG:  Solving for p, Initial residual = 0.00395735, Final residual = 9.88124e-07, No Iterations 349
time step continuity errors : sum local = 6.73319e-11, global = -6.53473e-21, cumulative = 1.46567e-19
ExecutionTime = 26.74 s  ClockTime = 27 s

Time = 0.030625

Courant Number mean: 0.0573525 max: 0.960584
smoothSolver:  Solving for Ux, Initial residual = 0.00334823, Final residual = 7.79832e-06, No Iterations 11
smoothSolver:  Solving for Uy, Initial residual = 0.00464656, Final residual = 6.61478e-06, No Iterations 12
DICPCG:  Solving for p, Initial residual = 0.00470051, Final residual = 0.000218766, No Iterations 146
time step continuity errors : sum local = 1.53828e-08, global = -6.20074e-20, cumulative = 8.45601e-20
DICPCG:  Solving for p, Initial residual = 0.00398039, Final residual = 9.68917e-07, No Iterations 349
time step continuity errors : sum local = 6.60606e-11, global = 2.06974e-20, cumulative = 1.05258e-19
ExecutionTime = 27.23 s  ClockTime = 27 s

Time = 0.03125

Courant Number mean: 0.0577803 max: 0.96092
smoothSolver:  Solving for Ux, Initial residual = 0.00328341, Final residual = 7.65703e-06, No Iterations 11
smoothSolver:  Solving for Uy, Initial residual = 0.00454333, Final residual = 6.46675e-06, No Iterations 12
DICPCG:  Solving for p, Initial residual = 0.00459078, Final residual = 0.000228796, No Iterations 269
time step continuity errors : sum local = 1.56584e-08, global = 1.89742e-20, cumulative = 1.24232e-19
DICPCG:  Solving for p, Initial residual = 0.00391072, Final residual = 9.73798e-07, No Iterations 349
time step continuity errors : sum local = 6.64431e-11, global = 7.18822e-21, cumulative = 1.3142e-19
ExecutionTime = 27.84 s  ClockTime = 28 s

Time = 0.031875

Courant Number mean: 0.0582006 max: 0.961247
smoothSolver:  Solving for Ux, Initial residual = 0.00320705, Final residual = 7.48516e-06, No Iterations 11
smoothSolver:  Solving for Uy, Initial residual = 0.0044512, Final residual = 6.33726e-06, No Iterations 12
DICPCG:  Solving for p, Initial residual = 0.00443253, Final residual = 0.000218661, No Iterations 102
time step continuity errors : sum local = 1.49332e-08, global = -1.67225e-20, cumulative = 1.14697e-19
DICPCG:  Solving for p, Initial residual = 0.00377069, Final residual = 9.54262e-07, No Iterations 349
time step continuity errors : sum local = 6.5097e-11, global = -2.83008e-20, cumulative = 8.63967e-20
ExecutionTime = 28.33 s  ClockTime = 28 s

Time = 0.0325

Courant Number mean: 0.0586136 max: 0.961563
smoothSolver:  Solving for Ux, Initial residual = 0.00313698, Final residual = 7.32826e-06, No Iterations 11
smoothSolver:  Solving for Uy, Initial residual = 0.00436286, Final residual = 6.21167e-06, No Iterations 12
DICPCG:  Solving for p, Initial residual = 0.00445587, Final residual = 0.000207095, No Iterations 146
time step continuity errors : sum local = 1.45929e-08, global = -4.15944e-21, cumulative = 8.22372e-20
DICPCG:  Solving for p, Initial residual = 0.00377633, Final residual = 9.36015e-07, No Iterations 349
time step continuity errors : sum local = 6.38849e-11, global = 3.90189e-20, cumulative = 1.21256e-19
ExecutionTime = 28.86 s  ClockTime = 29 s

Time = 0.033125

Courant Number mean: 0.0590206 max: 0.96187
smoothSolver:  Solving for Ux, Initial residual = 0.00307995, Final residual = 7.20329e-06, No Iterations 11
smoothSolver:  Solving for Uy, Initial residual = 0.00427126, Final residual = 6.08014e-06, No Iterations 12
DICPCG:  Solving for p, Initial residual = 0.00435858, Final residual = 0.000214885, No Iterations 269
time step continuity errors : sum local = 1.47216e-08, global = 1.11719e-21, cumulative = 1.22373e-19
DICPCG:  Solving for p, Initial residual = 0.00371447, Final residual = 9.35222e-07, No Iterations 349
time step continuity errors : sum local = 6.38763e-11, global = -4.51846e-20, cumulative = 7.71888e-20
ExecutionTime = 29.47 s  ClockTime = 30 s

Time = 0.03375

Courant Number mean: 0.059422 max: 0.962169
smoothSolver:  Solving for Ux, Initial residual = 0.00301151, Final residual = 7.04921e-06, No Iterations 11
smoothSolver:  Solving for Uy, Initial residual = 0.00418958, Final residual = 5.96531e-06, No Iterations 12
DICPCG:  Solving for p, Initial residual = 0.00420162, Final residual = 0.000209885, No Iterations 102
time step continuity errors : sum local = 1.43449e-08, global = 1.66825e-20, cumulative = 9.38713e-20
DICPCG:  Solving for p, Initial residual = 0.00357864, Final residual = 9.16284e-07, No Iterations 349
time step continuity errors : sum local = 6.25691e-11, global = 4.96178e-21, cumulative = 9.8833e-20
ExecutionTime = 29.95 s  ClockTime = 30 s

Time = 0.034375

Courant Number mean: 0.0598174 max: 0.962459
smoothSolver:  Solving for Ux, Initial residual = 0.00294892, Final residual = 6.90835e-06, No Iterations 11
smoothSolver:  Solving for Uy, Initial residual = 0.00411113, Final residual = 5.85375e-06, No Iterations 12
DICPCG:  Solving for p, Initial residual = 0.00423743, Final residual = 0.000198094, No Iterations 146
time step continuity errors : sum local = 1.39929e-08, global = -2.42058e-20, cumulative = 7.46273e-20
DICPCG:  Solving for p, Initial residual = 0.00359518, Final residual = 9.04833e-07, No Iterations 349
time step continuity errors : sum local = 6.18168e-11, global = -4.20545e-21, cumulative = 7.04218e-20
ExecutionTime = 30.46 s  ClockTime = 31 s

Time = 0.035

Courant Number mean: 0.0602067 max: 0.962741
smoothSolver:  Solving for Ux, Initial residual = 0.00289832, Final residual = 6.79632e-06, No Iterations 11
smoothSolver:  Solving for Uy, Initial residual = 0.00402929, Final residual = 9.90422e-06, No Iterations 11
DICPCG:  Solving for p, Initial residual = 0.00414267, Final residual = 0.000199414, No Iterations 269
time step continuity errors : sum local = 1.36759e-08, global = 4.16107e-20, cumulative = 1.12033e-19
DICPCG:  Solving for p, Initial residual = 0.00352798, Final residual = 9.07472e-07, No Iterations 349
time step continuity errors : sum local = 6.20393e-11, global = -1.39269e-21, cumulative = 1.1064e-19
ExecutionTime = 31.08 s  ClockTime = 31 s

Time = 0.035625

Courant Number mean: 0.0605901 max: 0.963016
smoothSolver:  Solving for Ux, Initial residual = 0.00283678, Final residual = 6.65686e-06, No Iterations 11
smoothSolver:  Solving for Uy, Initial residual = 0.00395643, Final residual = 9.72726e-06, No Iterations 11
DICPCG:  Solving for p, Initial residual = 0.00397988, Final residual = 0.000197083, No Iterations 102
time step continuity errors : sum local = 1.34764e-08, global = -2.11482e-20, cumulative = 8.94916e-20
DICPCG:  Solving for p, Initial residual = 0.00339247, Final residual = 8.87374e-07, No Iterations 349
time step continuity errors : sum local = 6.06507e-11, global = 1.64909e-20, cumulative = 1.05982e-19
ExecutionTime = 31.55 s  ClockTime = 32 s

Time = 0.03625

Courant Number mean: 0.0609677 max: 0.963283
smoothSolver:  Solving for Ux, Initial residual = 0.00278067, Final residual = 6.5305e-06, No Iterations 11
smoothSolver:  Solving for Uy, Initial residual = 0.0038863, Final residual = 9.55506e-06, No Iterations 11
DICPCG:  Solving for p, Initial residual = 0.00402728, Final residual = 0.000187645, No Iterations 146
time step continuity errors : sum local = 1.32998e-08, global = 6.54154e-20, cumulative = 1.71398e-19
DICPCG:  Solving for p, Initial residual = 0.00341825, Final residual = 8.80084e-07, No Iterations 349
time step continuity errors : sum local = 6.01796e-11, global = 2.78344e-20, cumulative = 1.99232e-19
ExecutionTime = 32.06 s  ClockTime = 32 s

Time = 0.036875

Courant Number mean: 0.0613395 max: 0.963543
smoothSolver:  Solving for Ux, Initial residual = 0.00273532, Final residual = 6.4301e-06, No Iterations 11
smoothSolver:  Solving for Uy, Initial residual = 0.0038128, Final residual = 9.37229e-06, No Iterations 11
DICPCG:  Solving for p, Initial residual = 0.00395499, Final residual = 0.000188786, No Iterations 269
time step continuity errors : sum local = 1.2958e-08, global = 2.66872e-21, cumulative = 2.01901e-19
DICPCG:  Solving for p, Initial residual = 0.00336773, Final residual = 8.75622e-07, No Iterations 349
time step continuity errors : sum local = 5.99145e-11, global = 1.48904e-20, cumulative = 2.16791e-19
ExecutionTime = 32.69 s  ClockTime = 33 s

Time = 0.0375

Courant Number mean: 0.0617056 max: 0.963798
smoothSolver:  Solving for Ux, Initial residual = 0.00267968, Final residual = 6.30327e-06, No Iterations 11
smoothSolver:  Solving for Uy, Initial residual = 0.00374726, Final residual = 9.21309e-06, No Iterations 11
DICPCG:  Solving for p, Initial residual = 0.003795, Final residual = 0.000188641, No Iterations 102
time step continuity errors : sum local = 1.29105e-08, global = 1.37851e-20, cumulative = 2.30577e-19
DICPCG:  Solving for p, Initial residual = 0.003238, Final residual = 9.94655e-07, No Iterations 348
time step continuity errors : sum local = 6.80343e-11, global = 1.59686e-20, cumulative = 2.46545e-19
ExecutionTime = 33.29 s  ClockTime = 33 s

Time = 0.038125

Courant Number mean: 0.0620666 max: 0.964045
smoothSolver:  Solving for Ux, Initial residual = 0.00262926, Final residual = 6.1888e-06, No Iterations 11
smoothSolver:  Solving for Uy, Initial residual = 0.00368421, Final residual = 9.05821e-06, No Iterations 11
DICPCG:  Solving for p, Initial residual = 0.00385129, Final residual = 0.000179568, No Iterations 146
time step continuity errors : sum local = 1.27493e-08, global = 2.84054e-20, cumulative = 2.7495e-19
DICPCG:  Solving for p, Initial residual = 0.00327201, Final residual = 9.98447e-07, No Iterations 348
time step continuity errors : sum local = 6.83206e-11, global = 5.47478e-21, cumulative = 2.80425e-19
ExecutionTime = 33.81 s  ClockTime = 34 s

Time = 0.03875

Courant Number mean: 0.0624235 max: 0.964286
smoothSolver:  Solving for Ux, Initial residual = 0.0025886, Final residual = 6.09826e-06, No Iterations 11
smoothSolver:  Solving for Uy, Initial residual = 0.00361773, Final residual = 8.89274e-06, No Iterations 11
DICPCG:  Solving for p, Initial residual = 0.00378528, Final residual = 0.000179792, No Iterations 269
time step continuity errors : sum local = 1.23505e-08, global = -1.06789e-20, cumulative = 2.69746e-19
DICPCG:  Solving for p, Initial residual = 0.00322336, Final residual = 9.87103e-07, No Iterations 348
time step continuity errors : sum local = 6.75847e-11, global = 2.38695e-20, cumulative = 2.93616e-19
ExecutionTime = 34.43 s  ClockTime = 35 s

Time = 0.039375

Courant Number mean: 0.0627757 max: 0.964522
smoothSolver:  Solving for Ux, Initial residual = 0.00253793, Final residual = 5.98268e-06, No Iterations 11
smoothSolver:  Solving for Uy, Initial residual = 0.0035585, Final residual = 8.74888e-06, No Iterations 11
DICPCG:  Solving for p, Initial residual = 0.0036278, Final residual = 0.000176916, No Iterations 103
time step continuity errors : sum local = 1.21159e-08, global = 8.39115e-20, cumulative = 3.77527e-19
DICPCG:  Solving for p, Initial residual = 0.00309555, Final residual = 9.65886e-07, No Iterations 348
time step continuity errors : sum local = 6.61207e-11, global = 1.07395e-20, cumulative = 3.88267e-19
ExecutionTime = 34.89 s  ClockTime = 35 s

Time = 0.04

Courant Number mean: 0.0631231 max: 0.964752
smoothSolver:  Solving for Ux, Initial residual = 0.00249223, Final residual = 5.87913e-06, No Iterations 11
smoothSolver:  Solving for Uy, Initial residual = 0.00350149, Final residual = 8.60881e-06, No Iterations 11
DICPCG:  Solving for p, Initial residual = 0.00368118, Final residual = 0.000173032, No Iterations 146
time step continuity errors : sum local = 1.23042e-08, global = -8.10201e-20, cumulative = 3.07247e-19
DICPCG:  Solving for p, Initial residual = 0.00313153, Final residual = 9.71002e-07, No Iterations 348
time step continuity errors : sum local = 6.64961e-11, global = 3.76718e-20, cumulative = 3.44919e-19
ExecutionTime = 35.41 s  ClockTime = 36 s

Time = 0.040625

Courant Number mean: 0.0634657 max: 0.964977
smoothSolver:  Solving for Ux, Initial residual = 0.0024553, Final residual = 5.79637e-06, No Iterations 11
smoothSolver:  Solving for Uy, Initial residual = 0.00344108, Final residual = 8.45832e-06, No Iterations 11
DICPCG:  Solving for p, Initial residual = 0.00363021, Final residual = 0.000171552, No Iterations 269
time step continuity errors : sum local = 1.17933e-08, global = -1.92685e-20, cumulative = 3.2565e-19
DICPCG:  Solving for p, Initial residual = 0.00309216, Final residual = 9.56321e-07, No Iterations 348
time step continuity errors : sum local = 6.55279e-11, global = 1.88211e-20, cumulative = 3.44471e-19
ExecutionTime = 36.03 s  ClockTime = 36 s

Time = 0.04125

Courant Number mean: 0.063804 max: 0.965196
smoothSolver:  Solving for Ux, Initial residual = 0.00240916, Final residual = 9.85754e-06, No Iterations 10
smoothSolver:  Solving for Uy, Initial residual = 0.00338728, Final residual = 8.32763e-06, No Iterations 11
DICPCG:  Solving for p, Initial residual = 0.00348043, Final residual = 0.000173818, No Iterations 103
time step continuity errors : sum local = 1.19157e-08, global = 1.60015e-20, cumulative = 3.60473e-19
DICPCG:  Solving for p, Initial residual = 0.00297448, Final residual = 9.25841e-07, No Iterations 348
time step continuity errors : sum local = 6.34284e-11, global = -1.50284e-20, cumulative = 3.45444e-19
ExecutionTime = 36.5 s  ClockTime = 37 s

Time = 0.041875

Courant Number mean: 0.0641375 max: 0.965411
smoothSolver:  Solving for Ux, Initial residual = 0.00236768, Final residual = 9.69333e-06, No Iterations 10
smoothSolver:  Solving for Uy, Initial residual = 0.00333553, Final residual = 8.20034e-06, No Iterations 11
DICPCG:  Solving for p, Initial residual = 0.00354148, Final residual = 0.000167849, No Iterations 146
time step continuity errors : sum local = 1.19409e-08, global = 6.21155e-20, cumulative = 4.0756e-19
DICPCG:  Solving for p, Initial residual = 0.00301659, Final residual = 9.25938e-07, No Iterations 348
time step continuity errors : sum local = 6.34584e-11, global = 1.20987e-20, cumulative = 4.19659e-19
ExecutionTime = 37 s  ClockTime = 37 s

Time = 0.0425

Courant Number mean: 0.0644664 max: 0.96562
smoothSolver:  Solving for Ux, Initial residual = 0.00233426, Final residual = 9.5632e-06, No Iterations 10
smoothSolver:  Solving for Uy, Initial residual = 0.00328034, Final residual = 8.06275e-06, No Iterations 11
DICPCG:  Solving for p, Initial residual = 0.00349678, Final residual = 0.000166799, No Iterations 269
time step continuity errors : sum local = 1.14734e-08, global = 3.8427e-20, cumulative = 4.58086e-19
DICPCG:  Solving for p, Initial residual = 0.00298023, Final residual = 9.09346e-07, No Iterations 348
time step continuity errors : sum local = 6.23544e-11, global = -1.99317e-20, cumulative = 4.38154e-19
ExecutionTime = 37.62 s  ClockTime = 38 s

Time = 0.043125

Courant Number mean: 0.0647909 max: 0.965825
smoothSolver:  Solving for Ux, Initial residual = 0.00229189, Final residual = 9.39442e-06, No Iterations 10
smoothSolver:  Solving for Uy, Initial residual = 0.00323124, Final residual = 7.94342e-06, No Iterations 11
DICPCG:  Solving for p, Initial residual = 0.0033467, Final residual = 0.000163633, No Iterations 104
time step continuity errors : sum local = 1.12276e-08, global = -1.9986e-20, cumulative = 4.18168e-19
DICPCG:  Solving for p, Initial residual = 0.00285737, Final residual = 8.963e-07, No Iterations 348
time step continuity errors : sum local = 6.145e-11, global = -3.96324e-21, cumulative = 4.14205e-19
ExecutionTime = 38.07 s  ClockTime = 38 s

Time = 0.04375

Courant Number mean: 0.0651113 max: 0.966025
smoothSolver:  Solving for Ux, Initial residual = 0.00225419, Final residual = 9.2446e-06, No Iterations 10
smoothSolver:  Solving for Uy, Initial residual = 0.00318409, Final residual = 7.82753e-06, No Iterations 11
DICPCG:  Solving for p, Initial residual = 0.00339863, Final residual = 0.000160169, No Iterations 146
time step continuity errors : sum local = 1.14083e-08, global = -2.45777e-20, cumulative = 3.89627e-19
DICPCG:  Solving for p, Initial residual = 0.00289984, Final residual = 8.90893e-07, No Iterations 348
time step continuity errors : sum local = 6.11017e-11, global = 1.53186e-20, cumulative = 4.04945e-19
ExecutionTime = 38.59 s  ClockTime = 39 s

Time = 0.044375

Courant Number mean: 0.0654284 max: 0.966221
smoothSolver:  Solving for Ux, Initial residual = 0.00222365, Final residual = 9.1246e-06, No Iterations 10
smoothSolver:  Solving for Uy, Initial residual = 0.00313347, Final residual = 7.7013e-06, No Iterations 11
DICPCG:  Solving for p, Initial residual = 0.00336491, Final residual = 0.000160291, No Iterations 269
time step continuity errors : sum local = 1.1033e-08, global = -2.76095e-20, cumulative = 3.77336e-19
DICPCG:  Solving for p, Initial residual = 0.00286833, Final residual = 9.8149e-07, No Iterations 347
time step continuity errors : sum local = 6.73418e-11, global = 1.68611e-21, cumulative = 3.79022e-19
ExecutionTime = 39.21 s  ClockTime = 39 s

Time = 0.045

Courant Number mean: 0.0657419 max: 0.966413
smoothSolver:  Solving for Ux, Initial residual = 0.00218481, Final residual = 8.96888e-06, No Iterations 10
smoothSolver:  Solving for Uy, Initial residual = 0.00308848, Final residual = 7.592e-06, No Iterations 11
DICPCG:  Solving for p, Initial residual = 0.00321846, Final residual = 0.000157908, No Iterations 104
time step continuity errors : sum local = 1.08409e-08, global = -1.09562e-20, cumulative = 3.68066e-19
DICPCG:  Solving for p, Initial residual = 0.00275096, Final residual = 9.7054e-07, No Iterations 347
time step continuity errors : sum local = 6.65759e-11, global = -8.66307e-21, cumulative = 3.59403e-19
ExecutionTime = 39.68 s  ClockTime = 40 s

Time = 0.045625

Courant Number mean: 0.0660517 max: 0.966601
smoothSolver:  Solving for Ux, Initial residual = 0.00215016, Final residual = 8.83126e-06, No Iterations 10
smoothSolver:  Solving for Uy, Initial residual = 0.0030453, Final residual = 7.48588e-06, No Iterations 11
DICPCG:  Solving for p, Initial residual = 0.00327628, Final residual = 0.000154403, No Iterations 146
time step continuity errors : sum local = 1.10164e-08, global = 7.02462e-21, cumulative = 3.66427e-19
DICPCG:  Solving for p, Initial residual = 0.00279717, Final residual = 9.64813e-07, No Iterations 347
time step continuity errors : sum local = 6.62091e-11, global = -3.12019e-20, cumulative = 3.35226e-19
ExecutionTime = 40.22 s  ClockTime = 40 s

Time = 0.04625

Courant Number mean: 0.0663577 max: 0.966785
smoothSolver:  Solving for Ux, Initial residual = 0.0021221, Final residual = 8.7212e-06, No Iterations 10
smoothSolver:  Solving for Uy, Initial residual = 0.0029987, Final residual = 7.36957e-06, No Iterations 11
DICPCG:  Solving for p, Initial residual = 0.00324459, Final residual = 0.000161074, No Iterations 268
time step continuity errors : sum local = 1.10936e-08, global = 1.46527e-20, cumulative = 3.49878e-19
DICPCG:  Solving for p, Initial residual = 0.00277072, Final residual = 9.36028e-07, No Iterations 347
time step continuity errors : sum local = 6.42673e-11, global = 8.36547e-21, cumulative = 3.58244e-19
ExecutionTime = 40.83 s  ClockTime = 41 s

Time = 0.046875

Courant Number mean: 0.0666602 max: 0.966965
smoothSolver:  Solving for Ux, Initial residual = 0.00208623, Final residual = 8.57734e-06, No Iterations 10
smoothSolver:  Solving for Uy, Initial residual = 0.00295735, Final residual = 7.26916e-06, No Iterations 11
DICPCG:  Solving for p, Initial residual = 0.0031218, Final residual = 0.000154379, No Iterations 104
time step continuity errors : sum local = 1.06078e-08, global = -2.65884e-20, cumulative = 3.31655e-19
DICPCG:  Solving for p, Initial residual = 0.00266782, Final residual = 9.31236e-07, No Iterations 347
time step continuity errors : sum local = 6.39244e-11, global = -1.07813e-20, cumulative = 3.20874e-19
ExecutionTime = 41.29 s  ClockTime = 41 s

Time = 0.0475

Courant Number mean: 0.066959 max: 0.967142
smoothSolver:  Solving for Ux, Initial residual = 0.00205447, Final residual = 8.45059e-06, No Iterations 10
smoothSolver:  Solving for Uy, Initial residual = 0.0029176, Final residual = 7.17143e-06, No Iterations 11
DICPCG:  Solving for p, Initial residual = 0.0031648, Final residual = 0.000148434, No Iterations 146
time step continuity errors : sum local = 1.06002e-08, global = -6.79007e-21, cumulative = 3.14084e-19
DICPCG:  Solving for p, Initial residual = 0.00270312, Final residual = 9.23599e-07, No Iterations 347
time step continuity errors : sum local = 6.34237e-11, global = 4.33322e-20, cumulative = 3.57416e-19
ExecutionTime = 41.81 s  ClockTime = 42 s

Time = 0.048125

Courant Number mean: 0.0672543 max: 0.967314
smoothSolver:  Solving for Ux, Initial residual = 0.00202872, Final residual = 8.34873e-06, No Iterations 10
smoothSolver:  Solving for Uy, Initial residual = 0.00287452, Final residual = 7.06387e-06, No Iterations 11
DICPCG:  Solving for p, Initial residual = 0.00313113, Final residual = 0.000154827, No Iterations 268
time step continuity errors : sum local = 1.06696e-08, global = -3.53815e-20, cumulative = 3.22035e-19
DICPCG:  Solving for p, Initial residual = 0.00267512, Final residual = 8.97335e-07, No Iterations 347
time step continuity errors : sum local = 6.16505e-11, global = -5.67321e-20, cumulative = 2.65303e-19
ExecutionTime = 42.43 s  ClockTime = 43 s

Time = 0.04875

Courant Number mean: 0.067546 max: 0.967484
smoothSolver:  Solving for Ux, Initial residual = 0.00199558, Final residual = 8.21527e-06, No Iterations 10
smoothSolver:  Solving for Uy, Initial residual = 0.00283635, Final residual = 6.97119e-06, No Iterations 11
DICPCG:  Solving for p, Initial residual = 0.00300994, Final residual = 0.000148861, No Iterations 105
time step continuity errors : sum local = 1.02337e-08, global = -1.84495e-20, cumulative = 2.46853e-19
DICPCG:  Solving for p, Initial residual = 0.00257416, Final residual = 8.88908e-07, No Iterations 347
time step continuity errors : sum local = 6.1058e-11, global = -5.15533e-20, cumulative = 1.953e-19
ExecutionTime = 42.91 s  ClockTime = 43 s

Time = 0.049375

Courant Number mean: 0.0678343 max: 0.967649
smoothSolver:  Solving for Ux, Initial residual = 0.00196637, Final residual = 8.09895e-06, No Iterations 10
smoothSolver:  Solving for Uy, Initial residual = 0.00279967, Final residual = 6.88103e-06, No Iterations 11
DICPCG:  Solving for p, Initial residual = 0.00305086, Final residual = 0.000151503, No Iterations 145
time step continuity errors : sum local = 1.08092e-08, global = 4.07457e-20, cumulative = 2.36045e-19
DICPCG:  Solving for p, Initial residual = 0.00260935, Final residual = 8.84227e-07, No Iterations 347
time step continuity errors : sum local = 6.07586e-11, global = 4.17618e-20, cumulative = 2.77807e-19
ExecutionTime = 43.41 s  ClockTime = 44 s

Time = 0.05

Courant Number mean: 0.0681192 max: 0.967812
smoothSolver:  Solving for Ux, Initial residual = 0.00194253, Final residual = 8.00491e-06, No Iterations 10
smoothSolver:  Solving for Uy, Initial residual = 0.00275966, Final residual = 6.78113e-06, No Iterations 11
DICPCG:  Solving for p, Initial residual = 0.0030461, Final residual = 0.000146975, No Iterations 268
time step continuity errors : sum local = 1.01348e-08, global = 2.39286e-20, cumulative = 3.01736e-19
DICPCG:  Solving for p, Initial residual = 0.00260114, Final residual = 8.58102e-07, No Iterations 347
time step continuity errors : sum local = 5.89921e-11, global = -1.27039e-20, cumulative = 2.89032e-19
ExecutionTime = 44.17 s  ClockTime = 44 s

Time = 0.050625

Courant Number mean: 0.0684017 max: 0.967972
smoothSolver:  Solving for Ux, Initial residual = 0.00191176, Final residual = 7.88088e-06, No Iterations 10
smoothSolver:  Solving for Uy, Initial residual = 0.00272438, Final residual = 6.69546e-06, No Iterations 11
DICPCG:  Solving for p, Initial residual = 0.00290608, Final residual = 0.000144263, No Iterations 104
time step continuity errors : sum local = 9.92422e-09, global = 3.91421e-21, cumulative = 2.92946e-19
DICPCG:  Solving for p, Initial residual = 0.00248605, Final residual = 9.76429e-07, No Iterations 346
time step continuity errors : sum local = 6.70973e-11, global = -2.07008e-20, cumulative = 2.72245e-19
ExecutionTime = 44.64 s  ClockTime = 45 s

Time = 0.05125

Courant Number mean: 0.0686812 max: 0.968129
smoothSolver:  Solving for Ux, Initial residual = 0.00188473, Final residual = 7.77247e-06, No Iterations 10
smoothSolver:  Solving for Uy, Initial residual = 0.00269045, Final residual = 6.61207e-06, No Iterations 11
DICPCG:  Solving for p, Initial residual = 0.00296355, Final residual = 0.000145036, No Iterations 145
time step continuity errors : sum local = 1.03669e-08, global = -6.48988e-20, cumulative = 2.07346e-19
DICPCG:  Solving for p, Initial residual = 0.0025356, Final residual = 9.86449e-07, No Iterations 346
time step continuity errors : sum local = 6.78089e-11, global = -2.54399e-20, cumulative = 1.81907e-19
ExecutionTime = 45.13 s  ClockTime = 45 s

Time = 0.051875

Courant Number mean: 0.0689578 max: 0.968283
smoothSolver:  Solving for Ux, Initial residual = 0.00186286, Final residual = 7.68547e-06, No Iterations 10
smoothSolver:  Solving for Uy, Initial residual = 0.00265324, Final residual = 6.51908e-06, No Iterations 11
DICPCG:  Solving for p, Initial residual = 0.00294702, Final residual = 0.000145863, No Iterations 267
time step continuity errors : sum local = 1.00633e-08, global = 3.20464e-21, cumulative = 1.85111e-19
DICPCG:  Solving for p, Initial residual = 0.00251989, Final residual = 9.54096e-07, No Iterations 346
time step continuity errors : sum local = 6.56145e-11, global = -2.23805e-20, cumulative = 1.62731e-19
ExecutionTime = 45.75 s  ClockTime = 46 s

Time = 0.0525

Courant Number mean: 0.0692315 max: 0.968434
smoothSolver:  Solving for Ux, Initial residual = 0.00183415, Final residual = 7.56962e-06, No Iterations 10
smoothSolver:  Solving for Uy, Initial residual = 0.0026205, Final residual = 6.43964e-06, No Iterations 11
DICPCG:  Solving for p, Initial residual = 0.00282983, Final residual = 0.000141147, No Iterations 105
time step continuity errors : sum local = 9.71882e-09, global = -2.22967e-20, cumulative = 1.40434e-19
DICPCG:  Solving for p, Initial residual = 0.00242011, Final residual = 9.259e-07, No Iterations 346
time step continuity errors : sum local = 6.36633e-11, global = 1.07722e-20, cumulative = 1.51206e-19
ExecutionTime = 46.24 s  ClockTime = 46 s

Time = 0.053125

Courant Number mean: 0.0695024 max: 0.968582
smoothSolver:  Solving for Ux, Initial residual = 0.00180912, Final residual = 7.46965e-06, No Iterations 10
smoothSolver:  Solving for Uy, Initial residual = 0.00258891, Final residual = 6.362e-06, No Iterations 11
DICPCG:  Solving for p, Initial residual = 0.00286508, Final residual = 0.000139976, No Iterations 145
time step continuity errors : sum local = 1.00033e-08, global = 2.05865e-20, cumulative = 1.71793e-19
DICPCG:  Solving for p, Initial residual = 0.00245232, Final residual = 9.38766e-07, No Iterations 346
time step continuity errors : sum local = 6.45686e-11, global = -3.00106e-20, cumulative = 1.41782e-19
ExecutionTime = 46.74 s  ClockTime = 47 s

Time = 0.05375

Courant Number mean: 0.0697703 max: 0.968727
smoothSolver:  Solving for Ux, Initial residual = 0.0017886, Final residual = 7.38811e-06, No Iterations 10
smoothSolver:  Solving for Uy, Initial residual = 0.00255418, Final residual = 6.27523e-06, No Iterations 11
DICPCG:  Solving for p, Initial residual = 0.00285143, Final residual = 0.000141586, No Iterations 267
time step continuity errors : sum local = 9.77282e-09, global = 8.0116e-21, cumulative = 1.49794e-19
DICPCG:  Solving for p, Initial residual = 0.00243928, Final residual = 9.09007e-07, No Iterations 346
time step continuity errors : sum local = 6.25478e-11, global = -1.61844e-20, cumulative = 1.33609e-19
ExecutionTime = 47.36 s  ClockTime = 48 s

Time = 0.054375

Courant Number mean: 0.0700354 max: 0.96887
smoothSolver:  Solving for Ux, Initial residual = 0.001762, Final residual = 7.2804e-06, No Iterations 10
smoothSolver:  Solving for Uy, Initial residual = 0.00252371, Final residual = 6.20128e-06, No Iterations 11
DICPCG:  Solving for p, Initial residual = 0.00273649, Final residual = 0.000135595, No Iterations 106
time step continuity errors : sum local = 9.33892e-09, global = 3.02796e-20, cumulative = 1.63889e-19
DICPCG:  Solving for p, Initial residual = 0.00234481, Final residual = 8.77599e-07, No Iterations 346
time step continuity errors : sum local = 6.03743e-11, global = -3.28162e-20, cumulative = 1.31073e-19
ExecutionTime = 47.81 s  ClockTime = 48 s

Time = 0.055

Courant Number mean: 0.0702977 max: 0.96901
smoothSolver:  Solving for Ux, Initial residual = 0.00173894, Final residual = 7.18776e-06, No Iterations 10
smoothSolver:  Solving for Uy, Initial residual = 0.00249429, Final residual = 6.12895e-06, No Iterations 11
DICPCG:  Solving for p, Initial residual = 0.00277374, Final residual = 0.000136309, No Iterations 145
time step continuity errors : sum local = 9.75215e-09, global = -4.36708e-20, cumulative = 8.74019e-20
DICPCG:  Solving for p, Initial residual = 0.00237672, Final residual = 8.947e-07, No Iterations 346
time step continuity errors : sum local = 6.15717e-11, global = 1.07352e-20, cumulative = 9.81372e-20
ExecutionTime = 48.29 s  ClockTime = 49 s

Time = 0.055625

Courant Number mean: 0.0705571 max: 0.969148
smoothSolver:  Solving for Ux, Initial residual = 0.00171976, Final residual = 7.11108e-06, No Iterations 10
smoothSolver:  Solving for Uy, Initial residual = 0.00246188, Final residual = 6.04794e-06, No Iterations 11
DICPCG:  Solving for p, Initial residual = 0.00276401, Final residual = 0.000136996, No Iterations 267
time step continuity errors : sum local = 9.46015e-09, global = -6.75221e-21, cumulative = 9.1385e-20
DICPCG:  Solving for p, Initial residual = 0.00236458, Final residual = 9.78196e-07, No Iterations 345
time step continuity errors : sum local = 6.73317e-11, global = 1.70973e-20, cumulative = 1.08482e-19
ExecutionTime = 48.93 s  ClockTime = 49 s

Time = 0.05625

Courant Number mean: 0.0708139 max: 0.969283
smoothSolver:  Solving for Ux, Initial residual = 0.00169486, Final residual = 7.01025e-06, No Iterations 10
smoothSolver:  Solving for Uy, Initial residual = 0.00243339, Final residual = 5.97886e-06, No Iterations 11
DICPCG:  Solving for p, Initial residual = 0.00265183, Final residual = 0.000131045, No Iterations 107
time step continuity errors : sum local = 9.03039e-09, global = -2.54452e-20, cumulative = 8.30371e-20
DICPCG:  Solving for p, Initial residual = 0.00227278, Final residual = 9.69794e-07, No Iterations 306
time step continuity errors : sum local = 6.73191e-11, global = -7.62888e-21, cumulative = 7.54082e-20
ExecutionTime = 49.38 s  ClockTime = 50 s

Time = 0.056875

Courant Number mean: 0.0710679 max: 0.969416
smoothSolver:  Solving for Ux, Initial residual = 0.00167345, Final residual = 6.92444e-06, No Iterations 10
smoothSolver:  Solving for Uy, Initial residual = 0.00240589, Final residual = 5.91126e-06, No Iterations 11
DICPCG:  Solving for p, Initial residual = 0.00268838, Final residual = 0.000131059, No Iterations 145
time step continuity errors : sum local = 9.3866e-09, global = 3.7195e-20, cumulative = 1.12603e-19
DICPCG:  Solving for p, Initial residual = 0.00230725, Final residual = 9.62643e-07, No Iterations 345
time step continuity errors : sum local = 6.62708e-11, global = -6.23343e-21, cumulative = 1.0637e-19
ExecutionTime = 49.88 s  ClockTime = 50 s

Time = 0.0575

Courant Number mean: 0.0713196 max: 0.969547
smoothSolver:  Solving for Ux, Initial residual = 0.00165548, Final residual = 6.85262e-06, No Iterations 10
smoothSolver:  Solving for Uy, Initial residual = 0.00237555, Final residual = 5.8354e-06, No Iterations 11
DICPCG:  Solving for p, Initial residual = 0.00268176, Final residual = 0.000131804, No Iterations 267
time step continuity errors : sum local = 9.10575e-09, global = -3.14623e-20, cumulative = 7.49074e-20
DICPCG:  Solving for p, Initial residual = 0.00229433, Final residual = 9.12919e-07, No Iterations 345
time step continuity errors : sum local = 6.28696e-11, global = 5.03771e-20, cumulative = 1.25285e-19
ExecutionTime = 50.51 s  ClockTime = 51 s

Time = 0.058125

Courant Number mean: 0.0715691 max: 0.969675
smoothSolver:  Solving for Ux, Initial residual = 0.00163225, Final residual = 6.75839e-06, No Iterations 10
smoothSolver:  Solving for Uy, Initial residual = 0.00234887, Final residual = 9.96426e-06, No Iterations 10
DICPCG:  Solving for p, Initial residual = 0.00255333, Final residual = 0.000126065, No Iterations 108
time step continuity errors : sum local = 8.68698e-09, global = -6.63419e-20, cumulative = 5.89427e-20
DICPCG:  Solving for p, Initial residual = 0.00218665, Final residual = 9.3176e-07, No Iterations 344
time step continuity errors : sum local = 6.41555e-11, global = -7.61359e-21, cumulative = 5.13291e-20
ExecutionTime = 50.97 s  ClockTime = 51 s

Time = 0.05875

Courant Number mean: 0.0718163 max: 0.969801
smoothSolver:  Solving for Ux, Initial residual = 0.00161249, Final residual = 6.6788e-06, No Iterations 10
smoothSolver:  Solving for Uy, Initial residual = 0.00232303, Final residual = 9.85477e-06, No Iterations 10
DICPCG:  Solving for p, Initial residual = 0.00259222, Final residual = 0.000123087, No Iterations 145
time step continuity errors : sum local = 8.83505e-09, global = 4.67085e-20, cumulative = 9.80376e-20
DICPCG:  Solving for p, Initial residual = 0.00222048, Final residual = 9.79852e-07, No Iterations 344
time step continuity errors : sum local = 6.74823e-11, global = -6.01961e-20, cumulative = 3.78416e-20
ExecutionTime = 51.46 s  ClockTime = 52 s

Time = 0.059375

Courant Number mean: 0.0720613 max: 0.969924
smoothSolver:  Solving for Ux, Initial residual = 0.00159534, Final residual = 6.60976e-06, No Iterations 10
smoothSolver:  Solving for Uy, Initial residual = 0.00229477, Final residual = 9.73284e-06, No Iterations 10
DICPCG:  Solving for p, Initial residual = 0.00257531, Final residual = 0.000124358, No Iterations 267
time step continuity errors : sum local = 8.59515e-09, global = -1.37288e-20, cumulative = 2.41128e-20
DICPCG:  Solving for p, Initial residual = 0.00220177, Final residual = 9.89024e-07, No Iterations 343
time step continuity errors : sum local = 6.81187e-11, global = -1.75736e-20, cumulative = 6.53923e-21
ExecutionTime = 52.07 s  ClockTime = 52 s

Time = 0.06

Courant Number mean: 0.0723039 max: 0.970046
smoothSolver:  Solving for Ux, Initial residual = 0.00157368, Final residual = 6.5217e-06, No Iterations 10
smoothSolver:  Solving for Uy, Initial residual = 0.00226967, Final residual = 9.6278e-06, No Iterations 10
DICPCG:  Solving for p, Initial residual = 0.00247376, Final residual = 0.000122288, No Iterations 109
time step continuity errors : sum local = 8.42921e-09, global = 3.28523e-20, cumulative = 3.93916e-20
DICPCG:  Solving for p, Initial residual = 0.0021186, Final residual = 9.01685e-07, No Iterations 344
time step continuity errors : sum local = 6.21114e-11, global = -3.24409e-20, cumulative = 6.95066e-21
ExecutionTime = 52.54 s  ClockTime = 53 s

Time = 0.060625

Courant Number mean: 0.0725442 max: 0.970166
smoothSolver:  Solving for Ux, Initial residual = 0.00155526, Final residual = 6.44786e-06, No Iterations 10
smoothSolver:  Solving for Uy, Initial residual = 0.00224534, Final residual = 9.52457e-06, No Iterations 10
DICPCG:  Solving for p, Initial residual = 0.00251369, Final residual = 0.000118562, No Iterations 145
time step continuity errors : sum local = 8.51842e-09, global = 3.19316e-20, cumulative = 3.88822e-20
DICPCG:  Solving for p, Initial residual = 0.00215408, Final residual = 9.11787e-07, No Iterations 344
time step continuity errors : sum local = 6.28234e-11, global = 1.08664e-20, cumulative = 4.97487e-20
ExecutionTime = 53.05 s  ClockTime = 53 s

Time = 0.06125

Courant Number mean: 0.0727821 max: 0.970284
smoothSolver:  Solving for Ux, Initial residual = 0.00153906, Final residual = 6.3827e-06, No Iterations 10
smoothSolver:  Solving for Uy, Initial residual = 0.00221883, Final residual = 9.41014e-06, No Iterations 10
DICPCG:  Solving for p, Initial residual = 0.00250067, Final residual = 0.000119089, No Iterations 267
time step continuity errors : sum local = 8.23449e-09, global = 2.69612e-20, cumulative = 7.67099e-20
DICPCG:  Solving for p, Initial residual = 0.00213855, Final residual = 9.20732e-07, No Iterations 343
time step continuity errors : sum local = 6.34408e-11, global = -4.77831e-20, cumulative = 2.89268e-20
ExecutionTime = 53.68 s  ClockTime = 54 s

Time = 0.061875

Courant Number mean: 0.0730178 max: 0.9704
smoothSolver:  Solving for Ux, Initial residual = 0.00151877, Final residual = 6.30021e-06, No Iterations 10
smoothSolver:  Solving for Uy, Initial residual = 0.0021952, Final residual = 9.31128e-06, No Iterations 10
DICPCG:  Solving for p, Initial residual = 0.00240351, Final residual = 0.000117919, No Iterations 110
time step continuity errors : sum local = 8.13063e-09, global = 1.04282e-20, cumulative = 3.9355e-20
DICPCG:  Solving for p, Initial residual = 0.00206112, Final residual = 9.47067e-07, No Iterations 343
time step continuity errors : sum local = 6.52549e-11, global = -2.00982e-20, cumulative = 1.92568e-20
ExecutionTime = 54.15 s  ClockTime = 54 s

Time = 0.0625

Courant Number mean: 0.0732513 max: 0.970514
smoothSolver:  Solving for Ux, Initial residual = 0.00150169, Final residual = 6.23127e-06, No Iterations 10
smoothSolver:  Solving for Uy, Initial residual = 0.00217224, Final residual = 9.21389e-06, No Iterations 10
DICPCG:  Solving for p, Initial residual = 0.0024402, Final residual = 0.00012129, No Iterations 144
time step continuity errors : sum local = 8.69948e-09, global = -7.10273e-20, cumulative = -5.17705e-20
DICPCG:  Solving for p, Initial residual = 0.00209162, Final residual = 9.53392e-07, No Iterations 343
time step continuity errors : sum local = 6.57058e-11, global = 5.69913e-21, cumulative = -4.60713e-20
ExecutionTime = 54.78 s  ClockTime = 55 s

Time = 0.063125

Courant Number mean: 0.0734825 max: 0.970626
smoothSolver:  Solving for Ux, Initial residual = 0.00148641, Final residual = 6.1695e-06, No Iterations 10
smoothSolver:  Solving for Uy, Initial residual = 0.00214728, Final residual = 9.10617e-06, No Iterations 10
DICPCG:  Solving for p, Initial residual = 0.00244178, Final residual = 0.000114737, No Iterations 267
time step continuity errors : sum local = 7.93693e-09, global = -8.11184e-21, cumulative = -5.41832e-20
DICPCG:  Solving for p, Initial residual = 0.00208837, Final residual = 9.78506e-07, No Iterations 342
time step continuity errors : sum local = 6.74407e-11, global = 1.60324e-20, cumulative = -3.81507e-20
ExecutionTime = 55.39 s  ClockTime = 56 s

Time = 0.06375

Courant Number mean: 0.0737116 max: 0.970736
smoothSolver:  Solving for Ux, Initial residual = 0.00146731, Final residual = 6.09174e-06, No Iterations 10
smoothSolver:  Solving for Uy, Initial residual = 0.00212508, Final residual = 9.01324e-06, No Iterations 10
DICPCG:  Solving for p, Initial residual = 0.00233784, Final residual = 0.000115847, No Iterations 110
time step continuity errors : sum local = 7.99048e-09, global = 1.03227e-20, cumulative = -2.7828e-20
DICPCG:  Solving for p, Initial residual = 0.00200625, Final residual = 8.92701e-07, No Iterations 343
time step continuity errors : sum local = 6.15338e-11, global = 4.01296e-20, cumulative = 1.23016e-20
ExecutionTime = 55.86 s  ClockTime = 56 s

Time = 0.064375

Courant Number mean: 0.0739383 max: 0.970845
smoothSolver:  Solving for Ux, Initial residual = 0.00145126, Final residual = 6.0272e-06, No Iterations 10
smoothSolver:  Solving for Uy, Initial residual = 0.00210345, Final residual = 8.92148e-06, No Iterations 10
DICPCG:  Solving for p, Initial residual = 0.00237706, Final residual = 0.000116883, No Iterations 144
time step continuity errors : sum local = 8.39482e-09, global = -2.10387e-20, cumulative = -8.73711e-21
DICPCG:  Solving for p, Initial residual = 0.00203835, Final residual = 8.93086e-07, No Iterations 343
time step continuity errors : sum local = 6.15741e-11, global = 9.09359e-21, cumulative = 3.56478e-22
ExecutionTime = 56.37 s  ClockTime = 57 s

Time = 0.065

Courant Number mean: 0.074163 max: 0.970952
smoothSolver:  Solving for Ux, Initial residual = 0.00143683, Final residual = 5.96889e-06, No Iterations 10
smoothSolver:  Solving for Uy, Initial residual = 0.00207993, Final residual = 8.81992e-06, No Iterations 10
DICPCG:  Solving for p, Initial residual = 0.00237454, Final residual = 0.000117629, No Iterations 266
time step continuity errors : sum local = 8.13658e-09, global = 3.89747e-20, cumulative = 3.93312e-20
DICPCG:  Solving for p, Initial residual = 0.00203405, Final residual = 9.16589e-07, No Iterations 342
time step continuity errors : sum local = 6.32051e-11, global = 2.68235e-20, cumulative = 6.61546e-20
ExecutionTime = 56.98 s  ClockTime = 57 s

Time = 0.065625

Courant Number mean: 0.0743862 max: 0.971057
smoothSolver:  Solving for Ux, Initial residual = 0.00141891, Final residual = 5.89582e-06, No Iterations 10
smoothSolver:  Solving for Uy, Initial residual = 0.00205896, Final residual = 8.73223e-06, No Iterations 10
DICPCG:  Solving for p, Initial residual = 0.00228865, Final residual = 0.000111628, No Iterations 111
time step continuity errors : sum local = 7.70521e-09, global = 5.17347e-20, cumulative = 1.17889e-19
DICPCG:  Solving for p, Initial residual = 0.00196058, Final residual = 9.4559e-07, No Iterations 342
time step continuity errors : sum local = 6.51928e-11, global = 6.47163e-20, cumulative = 1.82606e-19
ExecutionTime = 57.45 s  ClockTime = 58 s

Time = 0.06625

Courant Number mean: 0.0746076 max: 0.971161
smoothSolver:  Solving for Ux, Initial residual = 0.00140399, Final residual = 5.8356e-06, No Iterations 10
smoothSolver:  Solving for Uy, Initial residual = 0.00203841, Final residual = 8.64506e-06, No Iterations 10
DICPCG:  Solving for p, Initial residual = 0.0023113, Final residual = 0.000110599, No Iterations 144
time step continuity errors : sum local = 7.94135e-09, global = 5.43986e-21, cumulative = 1.88045e-19
DICPCG:  Solving for p, Initial residual = 0.00197998, Final residual = 9.3308e-07, No Iterations 342
time step continuity errors : sum local = 6.43432e-11, global = -1.07254e-20, cumulative = 1.7732e-19
ExecutionTime = 57.92 s  ClockTime = 58 s

Time = 0.066875

Courant Number mean: 0.0748272 max: 0.971263
smoothSolver:  Solving for Ux, Initial residual = 0.00139019, Final residual = 9.99836e-06, No Iterations 9
smoothSolver:  Solving for Uy, Initial residual = 0.00201621, Final residual = 8.54928e-06, No Iterations 10
DICPCG:  Solving for p, Initial residual = 0.00232607, Final residual = 0.00011495, No Iterations 266
time step continuity errors : sum local = 7.95417e-09, global = -4.90159e-21, cumulative = 1.72418e-19
DICPCG:  Solving for p, Initial residual = 0.00199912, Final residual = 9.05691e-07, No Iterations 343
time step continuity errors : sum local = 6.24846e-11, global = 1.33153e-20, cumulative = 1.85734e-19
ExecutionTime = 58.52 s  ClockTime = 59 s

Time = 0.0675

Courant Number mean: 0.0750446 max: 0.971364
smoothSolver:  Solving for Ux, Initial residual = 0.00137338, Final residual = 9.87964e-06, No Iterations 9
smoothSolver:  Solving for Uy, Initial residual = 0.00199641, Final residual = 8.46622e-06, No Iterations 10
DICPCG:  Solving for p, Initial residual = 0.00224949, Final residual = 0.000110044, No Iterations 111
time step continuity errors : sum local = 7.60354e-09, global = 8.84959e-21, cumulative = 1.94583e-19
DICPCG:  Solving for p, Initial residual = 0.00192973, Final residual = 8.97451e-07, No Iterations 343
time step continuity errors : sum local = 6.19143e-11, global = -1.84455e-20, cumulative = 1.76138e-19
ExecutionTime = 59 s  ClockTime = 59 s

Time = 0.068125

[...]
time step continuity errors : sum local = 7.68962e-11, global = 3.26861e-20, cumulative = 2.24942e-18
ExecutionTime = 367.89 s  ClockTime = 370 s

Time = 0.48375

Courant Number mean: 0.115529 max: 0.980593
smoothSolver:  Solving for Ux, Initial residual = 9.81707e-05, Final residual = 6.41895e-06, No Iterations 5
smoothSolver:  Solving for Uy, Initial residual = 0.000118232, Final residual = 7.70568e-06, No Iterations 5
DICPCG:  Solving for p, Initial residual = 0.000107012, Final residual = 4.66195e-06, No Iterations 142
time step continuity errors : sum local = 3.44018e-10, global = -5.10669e-21, cumulative = 2.24431e-18
DICPCG:  Solving for p, Initial residual = 9.22094e-05, Final residual = 8.94635e-07, No Iterations 283
time step continuity errors : sum local = 6.29347e-11, global = -1.07308e-19, cumulative = 2.13701e-18
ExecutionTime = 368.31 s  ClockTime = 370 s

Time = 0.484375

Courant Number mean: 0.115544 max: 0.980594
smoothSolver:  Solving for Ux, Initial residual = 9.79524e-05, Final residual = 6.40444e-06, No Iterations 5
smoothSolver:  Solving for Uy, Initial residual = 0.000117863, Final residual = 7.68136e-06, No Iterations 5
DICPCG:  Solving for p, Initial residual = 0.000107859, Final residual = 5.23921e-06, No Iterations 144
time step continuity errors : sum local = 4.03123e-10, global = 3.30607e-20, cumulative = 2.17007e-18
DICPCG:  Solving for p, Initial residual = 9.17696e-05, Final residual = 9.69291e-07, No Iterations 284
time step continuity errors : sum local = 6.81312e-11, global = -1.03554e-20, cumulative = 2.15971e-18
ExecutionTime = 368.76 s  ClockTime = 371 s

Time = 0.485

Courant Number mean: 0.115559 max: 0.980595
smoothSolver:  Solving for Ux, Initial residual = 9.75608e-05, Final residual = 6.37859e-06, No Iterations 5
smoothSolver:  Solving for Uy, Initial residual = 0.000117692, Final residual = 7.66984e-06, No Iterations 5
DICPCG:  Solving for p, Initial residual = 0.000108931, Final residual = 5.27436e-06, No Iterations 254
time step continuity errors : sum local = 3.71182e-10, global = -2.74692e-21, cumulative = 2.15697e-18
DICPCG:  Solving for p, Initial residual = 9.22543e-05, Final residual = 9.88175e-07, No Iterations 278
time step continuity errors : sum local = 6.9648e-11, global = -3.34292e-20, cumulative = 2.12354e-18
ExecutionTime = 369.3 s  ClockTime = 371 s

Time = 0.485625

Courant Number mean: 0.115573 max: 0.980596
smoothSolver:  Solving for Ux, Initial residual = 9.73235e-05, Final residual = 6.36352e-06, No Iterations 5
smoothSolver:  Solving for Uy, Initial residual = 0.00011727, Final residual = 7.64284e-06, No Iterations 5
DICPCG:  Solving for p, Initial residual = 0.000104715, Final residual = 5.00293e-06, No Iterations 140
time step continuity errors : sum local = 3.61946e-10, global = -3.28879e-20, cumulative = 2.09065e-18
DICPCG:  Solving for p, Initial residual = 8.93246e-05, Final residual = 9.91155e-07, No Iterations 163
time step continuity errors : sum local = 7.54603e-11, global = -1.45113e-20, cumulative = 2.07614e-18
ExecutionTime = 369.61 s  ClockTime = 371 s

Time = 0.48625

Courant Number mean: 0.115588 max: 0.980597
smoothSolver:  Solving for Ux, Initial residual = 9.71027e-05, Final residual = 6.34918e-06, No Iterations 5
smoothSolver:  Solving for Uy, Initial residual = 0.000116888, Final residual = 7.61805e-06, No Iterations 5
DICPCG:  Solving for p, Initial residual = 0.000106829, Final residual = 4.97474e-06, No Iterations 141
time step continuity errors : sum local = 3.60205e-10, global = 3.05406e-21, cumulative = 2.07919e-18
DICPCG:  Solving for p, Initial residual = 9.18552e-05, Final residual = 9.72901e-07, No Iterations 164
time step continuity errors : sum local = 7.54518e-11, global = 1.68963e-20, cumulative = 2.09609e-18
ExecutionTime = 369.92 s  ClockTime = 372 s

Time = 0.486875

Courant Number mean: 0.115602 max: 0.980598
smoothSolver:  Solving for Ux, Initial residual = 9.68193e-05, Final residual = 6.33066e-06, No Iterations 5
smoothSolver:  Solving for Uy, Initial residual = 0.00011657, Final residual = 7.59733e-06, No Iterations 5
DICPCG:  Solving for p, Initial residual = 0.000105464, Final residual = 4.61422e-06, No Iterations 142
time step continuity errors : sum local = 3.40421e-10, global = -1.01848e-21, cumulative = 2.09507e-18
DICPCG:  Solving for p, Initial residual = 9.08015e-05, Final residual = 8.85919e-07, No Iterations 283
time step continuity errors : sum local = 6.23248e-11, global = -5.65962e-20, cumulative = 2.03847e-18
ExecutionTime = 370.35 s  ClockTime = 372 s

Time = 0.4875

Courant Number mean: 0.115617 max: 0.980599
smoothSolver:  Solving for Ux, Initial residual = 9.66038e-05, Final residual = 6.31634e-06, No Iterations 5
smoothSolver:  Solving for Uy, Initial residual = 0.000116206, Final residual = 7.57338e-06, No Iterations 5
DICPCG:  Solving for p, Initial residual = 0.000106247, Final residual = 5.19699e-06, No Iterations 144
time step continuity errors : sum local = 3.99631e-10, global = 1.32742e-20, cumulative = 2.05175e-18
DICPCG:  Solving for p, Initial residual = 9.04015e-05, Final residual = 9.29394e-07, No Iterations 284
time step continuity errors : sum local = 6.53278e-11, global = -1.92217e-20, cumulative = 2.03253e-18
ExecutionTime = 370.92 s  ClockTime = 373 s

Time = 0.488125

Courant Number mean: 0.115631 max: 0.9806
smoothSolver:  Solving for Ux, Initial residual = 9.62178e-05, Final residual = 6.29087e-06, No Iterations 5
smoothSolver:  Solving for Uy, Initial residual = 0.000116037, Final residual = 7.56202e-06, No Iterations 5
DICPCG:  Solving for p, Initial residual = 0.000107301, Final residual = 5.2204e-06, No Iterations 254
time step continuity errors : sum local = 3.67399e-10, global = -2.81764e-20, cumulative = 2.00435e-18
DICPCG:  Solving for p, Initial residual = 9.08736e-05, Final residual = 9.93239e-07, No Iterations 277
time step continuity errors : sum local = 7.0008e-11, global = 5.70449e-20, cumulative = 2.06139e-18
ExecutionTime = 371.43 s  ClockTime = 373 s

Time = 0.48875

Courant Number mean: 0.115646 max: 0.980601
smoothSolver:  Solving for Ux, Initial residual = 9.59834e-05, Final residual = 6.27597e-06, No Iterations 5
smoothSolver:  Solving for Uy, Initial residual = 0.000115623, Final residual = 7.53547e-06, No Iterations 5
DICPCG:  Solving for p, Initial residual = 0.000103239, Final residual = 4.79113e-06, No Iterations 140
time step continuity errors : sum local = 3.46982e-10, global = 4.96457e-20, cumulative = 2.11104e-18
DICPCG:  Solving for p, Initial residual = 8.80335e-05, Final residual = 9.89267e-07, No Iterations 163
time step continuity errors : sum local = 7.52741e-11, global = -1.47178e-21, cumulative = 2.10957e-18
ExecutionTime = 371.75 s  ClockTime = 374 s

Time = 0.489375

Courant Number mean: 0.11566 max: 0.980602
smoothSolver:  Solving for Ux, Initial residual = 9.57662e-05, Final residual = 6.26186e-06, No Iterations 5
smoothSolver:  Solving for Uy, Initial residual = 0.000115245, Final residual = 7.51098e-06, No Iterations 5
DICPCG:  Solving for p, Initial residual = 0.000105235, Final residual = 5.09291e-06, No Iterations 140
time step continuity errors : sum local = 3.68314e-10, global = 1.59905e-20, cumulative = 2.12556e-18
DICPCG:  Solving for p, Initial residual = 9.12734e-05, Final residual = 9.58025e-07, No Iterations 164
time step continuity errors : sum local = 7.42976e-11, global = 3.64203e-21, cumulative = 2.1292e-18
ExecutionTime = 372.06 s  ClockTime = 374 s

Time = 0.49

Courant Number mean: 0.115674 max: 0.980603
smoothSolver:  Solving for Ux, Initial residual = 9.5486e-05, Final residual = 6.24355e-06, No Iterations 5
smoothSolver:  Solving for Uy, Initial residual = 0.000114933, Final residual = 7.49065e-06, No Iterations 5
DICPCG:  Solving for p, Initial residual = 0.000104115, Final residual = 5.14347e-06, No Iterations 141
time step continuity errors : sum local = 3.77448e-10, global = -1.15721e-20, cumulative = 2.11763e-18
DICPCG:  Solving for p, Initial residual = 8.97906e-05, Final residual = 9.8141e-07, No Iterations 282
time step continuity errors : sum local = 6.9051e-11, global = -4.43052e-21, cumulative = 2.1132e-18
ExecutionTime = 372.47 s  ClockTime = 374 s

Time = 0.490625

Courant Number mean: 0.115688 max: 0.980604
smoothSolver:  Solving for Ux, Initial residual = 9.5274e-05, Final residual = 6.22946e-06, No Iterations 5
smoothSolver:  Solving for Uy, Initial residual = 0.000114575, Final residual = 7.46704e-06, No Iterations 5
DICPCG:  Solving for p, Initial residual = 0.000105313, Final residual = 5.13899e-06, No Iterations 144
time step continuity errors : sum local = 3.95199e-10, global = 2.89761e-20, cumulative = 2.14217e-18
DICPCG:  Solving for p, Initial residual = 8.91959e-05, Final residual = 9.5084e-07, No Iterations 284
time step continuity errors : sum local = 6.6836e-11, global = 8.82716e-21, cumulative = 2.151e-18
ExecutionTime = 372.91 s  ClockTime = 375 s

Time = 0.49125

Courant Number mean: 0.115703 max: 0.980605
smoothSolver:  Solving for Ux, Initial residual = 9.48936e-05, Final residual = 6.20436e-06, No Iterations 5
smoothSolver:  Solving for Uy, Initial residual = 0.000114407, Final residual = 7.45579e-06, No Iterations 5
DICPCG:  Solving for p, Initial residual = 0.00010594, Final residual = 5.20592e-06, No Iterations 254
time step continuity errors : sum local = 3.6639e-10, global = -7.042e-20, cumulative = 2.08058e-18
DICPCG:  Solving for p, Initial residual = 8.97284e-05, Final residual = 9.93225e-07, No Iterations 277
time step continuity errors : sum local = 7.00073e-11, global = 2.29953e-20, cumulative = 2.10358e-18
ExecutionTime = 373.44 s  ClockTime = 375 s

Time = 0.491875

Courant Number mean: 0.115717 max: 0.980606
smoothSolver:  Solving for Ux, Initial residual = 9.46624e-05, Final residual = 6.18967e-06, No Iterations 5
smoothSolver:  Solving for Uy, Initial residual = 0.000113998, Final residual = 7.42961e-06, No Iterations 5
DICPCG:  Solving for p, Initial residual = 0.000101725, Final residual = 4.87959e-06, No Iterations 140
time step continuity errors : sum local = 3.53048e-10, global = -9.80051e-20, cumulative = 2.00557e-18
DICPCG:  Solving for p, Initial residual = 8.67925e-05, Final residual = 9.91953e-07, No Iterations 162
time step continuity errors : sum local = 7.53912e-11, global = -4.25858e-20, cumulative = 1.96298e-18
ExecutionTime = 373.75 s  ClockTime = 376 s

Time = 0.4925

Courant Number mean: 0.115731 max: 0.980608
smoothSolver:  Solving for Ux, Initial residual = 9.44484e-05, Final residual = 6.17576e-06, No Iterations 5
smoothSolver:  Solving for Uy, Initial residual = 0.000113626, Final residual = 7.4055e-06, No Iterations 5
DICPCG:  Solving for p, Initial residual = 0.000103731, Final residual = 4.96088e-06, No Iterations 141
time step continuity errors : sum local = 3.58889e-10, global = 2.22384e-20, cumulative = 1.98522e-18
DICPCG:  Solving for p, Initial residual = 8.92964e-05, Final residual = 9.40375e-07, No Iterations 164
time step continuity errors : sum local = 7.29538e-11, global = 3.42755e-20, cumulative = 2.0195e-18
ExecutionTime = 374.07 s  ClockTime = 376 s

Time = 0.493125

Courant Number mean: 0.115745 max: 0.980609
smoothSolver:  Solving for Ux, Initial residual = 9.41725e-05, Final residual = 6.15774e-06, No Iterations 5
smoothSolver:  Solving for Uy, Initial residual = 0.000113317, Final residual = 7.38538e-06, No Iterations 5
DICPCG:  Solving for p, Initial residual = 0.000102416, Final residual = 4.8758e-06, No Iterations 141
time step continuity errors : sum local = 3.58382e-10, global = -1.1114e-20, cumulative = 2.00838e-18
DICPCG:  Solving for p, Initial residual = 8.87903e-05, Final residual = 9.84538e-07, No Iterations 282
time step continuity errors : sum local = 6.92773e-11, global = -1.43997e-20, cumulative = 1.99399e-18
ExecutionTime = 374.5 s  ClockTime = 376 s

Time = 0.49375

Courant Number mean: 0.115759 max: 0.98061
smoothSolver:  Solving for Ux, Initial residual = 9.39627e-05, Final residual = 6.1438e-06, No Iterations 5
smoothSolver:  Solving for Uy, Initial residual = 0.000112965, Final residual = 7.36218e-06, No Iterations 5
DICPCG:  Solving for p, Initial residual = 0.000103497, Final residual = 5.14923e-06, No Iterations 144
time step continuity errors : sum local = 3.95515e-10, global = 1.47494e-20, cumulative = 2.00873e-18
DICPCG:  Solving for p, Initial residual = 8.78236e-05, Final residual = 9.45373e-07, No Iterations 284
time step continuity errors : sum local = 6.64488e-11, global = -2.41476e-20, cumulative = 1.98459e-18
ExecutionTime = 374.93 s  ClockTime = 377 s

Time = 0.494375

Courant Number mean: 0.115773 max: 0.980611
smoothSolver:  Solving for Ux, Initial residual = 9.35879e-05, Final residual = 6.11906e-06, No Iterations 5
smoothSolver:  Solving for Uy, Initial residual = 0.0001128, Final residual = 7.35109e-06, No Iterations 5
DICPCG:  Solving for p, Initial residual = 0.000104377, Final residual = 5.17069e-06, No Iterations 254
time step continuity errors : sum local = 3.63921e-10, global = -7.67842e-20, cumulative = 1.9078e-18
DICPCG:  Solving for p, Initial residual = 8.8436e-05, Final residual = 9.84707e-07, No Iterations 277
time step continuity errors : sum local = 6.9408e-11, global = 7.5372e-20, cumulative = 1.98317e-18
ExecutionTime = 375.45 s  ClockTime = 377 s

Time = 0.495

Courant Number mean: 0.115787 max: 0.980612
smoothSolver:  Solving for Ux, Initial residual = 9.33598e-05, Final residual = 6.10457e-06, No Iterations 5
smoothSolver:  Solving for Uy, Initial residual = 0.000112398, Final residual = 7.32529e-06, No Iterations 5
DICPCG:  Solving for p, Initial residual = 0.00010023, Final residual = 4.78474e-06, No Iterations 140
time step continuity errors : sum local = 3.46253e-10, global = -2.76006e-20, cumulative = 1.95557e-18
DICPCG:  Solving for p, Initial residual = 8.55111e-05, Final residual = 9.90653e-07, No Iterations 162
time step continuity errors : sum local = 7.5222e-11, global = 4.32428e-20, cumulative = 1.99882e-18
ExecutionTime = 375.77 s  ClockTime = 378 s

Time = 0.495625

Courant Number mean: 0.115801 max: 0.980613
smoothSolver:  Solving for Ux, Initial residual = 9.31488e-05, Final residual = 6.09087e-06, No Iterations 5
smoothSolver:  Solving for Uy, Initial residual = 0.000112031, Final residual = 7.30153e-06, No Iterations 5
DICPCG:  Solving for p, Initial residual = 0.000102144, Final residual = 4.94637e-06, No Iterations 141
time step continuity errors : sum local = 3.57764e-10, global = -6.4106e-20, cumulative = 1.93471e-18
DICPCG:  Solving for p, Initial residual = 8.78157e-05, Final residual = 9.94317e-07, No Iterations 163
time step continuity errors : sum local = 7.66748e-11, global = 3.9137e-20, cumulative = 1.97385e-18
ExecutionTime = 376.08 s  ClockTime = 378 s

Time = 0.49625

Courant Number mean: 0.115815 max: 0.980614
smoothSolver:  Solving for Ux, Initial residual = 9.28767e-05, Final residual = 6.07309e-06, No Iterations 5
smoothSolver:  Solving for Uy, Initial residual = 0.000111727, Final residual = 7.28172e-06, No Iterations 5
DICPCG:  Solving for p, Initial residual = 0.00010086, Final residual = 4.97212e-06, No Iterations 141
time step continuity errors : sum local = 3.64968e-10, global = 7.94972e-21, cumulative = 1.9818e-18
DICPCG:  Solving for p, Initial residual = 8.74788e-05, Final residual = 9.71336e-07, No Iterations 282
time step continuity errors : sum local = 6.83509e-11, global = -8.58525e-22, cumulative = 1.98094e-18
ExecutionTime = 376.51 s  ClockTime = 378 s

Time = 0.496875

Courant Number mean: 0.115829 max: 0.980615
smoothSolver:  Solving for Ux, Initial residual = 9.26701e-05, Final residual = 6.05936e-06, No Iterations 5
smoothSolver:  Solving for Uy, Initial residual = 0.00011138, Final residual = 7.25883e-06, No Iterations 5
DICPCG:  Solving for p, Initial residual = 0.000102024, Final residual = 4.93397e-06, No Iterations 145
time step continuity errors : sum local = 3.7999e-10, global = -3.26646e-21, cumulative = 1.97767e-18
DICPCG:  Solving for p, Initial residual = 8.63733e-05, Final residual = 9.67213e-07, No Iterations 283
time step continuity errors : sum local = 6.79799e-11, global = -1.45577e-20, cumulative = 1.96311e-18
ExecutionTime = 376.95 s  ClockTime = 379 s

Time = 0.4975

Courant Number mean: 0.115842 max: 0.980616
smoothSolver:  Solving for Ux, Initial residual = 9.23e-05, Final residual = 6.03493e-06, No Iterations 5
smoothSolver:  Solving for Uy, Initial residual = 0.000111217, Final residual = 7.24791e-06, No Iterations 5
DICPCG:  Solving for p, Initial residual = 0.000102335, Final residual = 4.8543e-06, No Iterations 255
time step continuity errors : sum local = 3.41654e-10, global = 2.19124e-20, cumulative = 1.98503e-18
DICPCG:  Solving for p, Initial residual = 8.66293e-05, Final residual = 9.86659e-07, No Iterations 277
time step continuity errors : sum local = 6.95496e-11, global = -3.39051e-20, cumulative = 1.95112e-18
ExecutionTime = 377.47 s  ClockTime = 379 s

Time = 0.498125

Courant Number mean: 0.115856 max: 0.980617
smoothSolver:  Solving for Ux, Initial residual = 9.20769e-05, Final residual = 6.02076e-06, No Iterations 5
smoothSolver:  Solving for Uy, Initial residual = 0.000110818, Final residual = 7.22233e-06, No Iterations 5
DICPCG:  Solving for p, Initial residual = 9.86129e-05, Final residual = 4.69061e-06, No Iterations 140
time step continuity errors : sum local = 3.39542e-10, global = 7.89031e-20, cumulative = 2.03003e-18
DICPCG:  Solving for p, Initial residual = 8.41371e-05, Final residual = 9.70927e-07, No Iterations 162
time step continuity errors : sum local = 7.3784e-11, global = 3.59748e-20, cumulative = 2.066e-18
ExecutionTime = 377.78 s  ClockTime = 380 s

Time = 0.49875

Courant Number mean: 0.11587 max: 0.980618
smoothSolver:  Solving for Ux, Initial residual = 9.1867e-05, Final residual = 6.00713e-06, No Iterations 5
smoothSolver:  Solving for Uy, Initial residual = 0.00011046, Final residual = 7.19911e-06, No Iterations 5
DICPCG:  Solving for p, Initial residual = 0.000100615, Final residual = 4.83158e-06, No Iterations 141
time step continuity errors : sum local = 3.49574e-10, global = 3.12992e-20, cumulative = 2.0973e-18
DICPCG:  Solving for p, Initial residual = 8.64826e-05, Final residual = 9.81705e-07, No Iterations 163
time step continuity errors : sum local = 7.57087e-11, global = 8.87133e-21, cumulative = 2.10617e-18
ExecutionTime = 378.11 s  ClockTime = 380 s

Time = 0.499375

Courant Number mean: 0.115883 max: 0.980619
smoothSolver:  Solving for Ux, Initial residual = 9.15993e-05, Final residual = 5.98963e-06, No Iterations 5
smoothSolver:  Solving for Uy, Initial residual = 0.00011016, Final residual = 7.17955e-06, No Iterations 5
DICPCG:  Solving for p, Initial residual = 9.9359e-05, Final residual = 4.2451e-06, No Iterations 142
time step continuity errors : sum local = 3.13701e-10, global = 6.22825e-20, cumulative = 2.16845e-18
DICPCG:  Solving for p, Initial residual = 8.55681e-05, Final residual = 9.58401e-07, No Iterations 282
time step continuity errors : sum local = 6.74446e-11, global = 3.45472e-20, cumulative = 2.203e-18
ExecutionTime = 378.54 s  ClockTime = 380 s

Time = 0.5

Courant Number mean: 0.115897 max: 0.98062
smoothSolver:  Solving for Ux, Initial residual = 9.13956e-05, Final residual = 5.9761e-06, No Iterations 5
smoothSolver:  Solving for Uy, Initial residual = 0.000109817, Final residual = 7.15694e-06, No Iterations 5
DICPCG:  Solving for p, Initial residual = 0.000100121, Final residual = 4.78092e-06, No Iterations 144
time step continuity errors : sum local = 3.6878e-10, global = 8.00632e-20, cumulative = 2.28306e-18
DICPCG:  Solving for p, Initial residual = 8.51914e-05, Final residual = 9.67314e-07, No Iterations 283
time step continuity errors : sum local = 6.79828e-11, global = 2.00779e-20, cumulative = 2.30314e-18
ExecutionTime = 379.09 s  ClockTime = 381 s

End

