/*---------------------------------------------------------------------------*\
  =========                 |
  \\      /  F ield         | OpenFOAM: The Open Source CFD Toolbox
   \\    /   O peration     | Website:  https://openfoam.org
    \\  /    A nd           | Version:  7
     \\/     M anipulation  |
\*---------------------------------------------------------------------------*/
Build  : 7
Exec   : icoFoam
Date   : Feb 11 2026
Time   : 16:13:33
Host   : "c201-027.frontera.tacc.utexas.edu"
PID    : 256756
I/O    : uncollated
Case   : /work2/11329/kdn849/frontera/COE-347-SP26/cavity160.10.AR2
nProcs : 1
sigFpe : Enabling floating point exception trapping (FOAM_SIGFPE).
fileModificationChecking : Monitoring run-time modified files using timeStampMaster (fileModificationSkew 10)
allowSystemOperations : Allowing user-supplied system call operations

// * * * * * * * * * * * * * * * * * * * * * * * * * * * * * * * * * * * * * //
Create time

Create mesh for time = 0

Reading transportProperties

Reading field p

Reading field U

Reading/calculating face flux field phi


Starting time loop

Time = 0.000625

Courant Number mean: 0 max: 0
smoothSolver:  Solving for Ux, Initial residual = 1, Final residual = 9.96156e-06, No Iterations 125
smoothSolver:  Solving for Uy, Initial residual = 0, Final residual = 0, No Iterations 0
DICPCG:  Solving for p, Initial residual = 1, Final residual = 0.0482856, No Iterations 147
time step continuity errors : sum local = 7.57298e-06, global = 1.25628e-21, cumulative = 1.25628e-21
DICPCG:  Solving for p, Initial residual = 0.80496, Final residual = 9.20674e-07, No Iterations 407
time step continuity errors : sum local = 1.86342e-10, global = 2.32391e-21, cumulative = 3.58019e-21
ExecutionTime = 1 s  ClockTime = 1 s

Time = 0.00125

Courant Number mean: 0.0253783 max: 0.849669
smoothSolver:  Solving for Ux, Initial residual = 0.109614, Final residual = 9.75886e-06, No Iterations 134
smoothSolver:  Solving for Uy, Initial residual = 0.434721, Final residual = 9.82581e-06, No Iterations 158
DICPCG:  Solving for p, Initial residual = 0.859796, Final residual = 0.0396055, No Iterations 182
time step continuity errors : sum local = 1.66767e-05, global = -1.16839e-20, cumulative = -8.10373e-21
DICPCG:  Solving for p, Initial residual = 0.801354, Final residual = 9.74844e-07, No Iterations 401
time step continuity errors : sum local = 3.92624e-10, global = -1.49118e-20, cumulative = -2.30155e-20
ExecutionTime = 1.91 s  ClockTime = 2 s

Time = 0.001875

Courant Number mean: 0.0386052 max: 0.965137
smoothSolver:  Solving for Ux, Initial residual = 0.0744986, Final residual = 9.85896e-06, No Iterations 128
smoothSolver:  Solving for Uy, Initial residual = 0.448944, Final residual = 9.403e-06, No Iterations 165
DICPCG:  Solving for p, Initial residual = 0.908378, Final residual = 0.0428094, No Iterations 264
time step continuity errors : sum local = 2.51877e-05, global = -3.33457e-20, cumulative = -5.63612e-20
DICPCG:  Solving for p, Initial residual = 0.515045, Final residual = 9.62714e-07, No Iterations 396
time step continuity errors : sum local = 9.62142e-10, global = -1.87319e-20, cumulative = -7.50932e-20
ExecutionTime = 2.9 s  ClockTime = 3 s

Time = 0.0025

Courant Number mean: 0.0469264 max: 0.946629
smoothSolver:  Solving for Ux, Initial residual = 0.0515201, Final residual = 9.88422e-06, No Iterations 117
smoothSolver:  Solving for Uy, Initial residual = 0.299143, Final residual = 9.68074e-06, No Iterations 150
DICPCG:  Solving for p, Initial residual = 0.898032, Final residual = 0.0419474, No Iterations 247
time step continuity errors : sum local = 2.75536e-05, global = -5.03494e-20, cumulative = -1.25443e-19
DICPCG:  Solving for p, Initial residual = 0.683594, Final residual = 9.55464e-07, No Iterations 393
time step continuity errors : sum local = 7.91978e-10, global = 5.42244e-20, cumulative = -7.12182e-20
ExecutionTime = 3.86 s  ClockTime = 4 s

Time = 0.003125

Courant Number mean: 0.0523716 max: 0.961996
smoothSolver:  Solving for Ux, Initial residual = 0.0434478, Final residual = 9.90989e-06, No Iterations 117
smoothSolver:  Solving for Uy, Initial residual = 0.200433, Final residual = 9.95765e-06, No Iterations 141
DICPCG:  Solving for p, Initial residual = 0.915836, Final residual = 0.0440071, No Iterations 247
time step continuity errors : sum local = 2.79523e-05, global = -1.36485e-21, cumulative = -7.25831e-20
DICPCG:  Solving for p, Initial residual = 0.747905, Final residual = 9.83524e-07, No Iterations 392
time step continuity errors : sum local = 7.16276e-10, global = -1.18147e-20, cumulative = -8.43978e-20
ExecutionTime = 4.79 s  ClockTime = 5 s

Time = 0.00375

Courant Number mean: 0.0570697 max: 0.959084
smoothSolver:  Solving for Ux, Initial residual = 0.0417774, Final residual = 9.81671e-06, No Iterations 122
smoothSolver:  Solving for Uy, Initial residual = 0.194773, Final residual = 9.82786e-06, No Iterations 147
DICPCG:  Solving for p, Initial residual = 0.896285, Final residual = 0.0445492, No Iterations 258
time step continuity errors : sum local = 2.99587e-05, global = -8.70349e-21, cumulative = -9.31013e-20
DICPCG:  Solving for p, Initial residual = 0.740396, Final residual = 9.7251e-07, No Iterations 389
time step continuity errors : sum local = 7.6249e-10, global = -5.30504e-21, cumulative = -9.84063e-20
ExecutionTime = 5.76 s  ClockTime = 6 s

Time = 0.004375

Courant Number mean: 0.0612079 max: 0.963749
smoothSolver:  Solving for Ux, Initial residual = 0.0357394, Final residual = 9.58526e-06, No Iterations 119
smoothSolver:  Solving for Uy, Initial residual = 0.131865, Final residual = 9.80252e-06, No Iterations 133
DICPCG:  Solving for p, Initial residual = 0.905844, Final residual = 0.0433669, No Iterations 247
time step continuity errors : sum local = 2.59406e-05, global = -4.10488e-20, cumulative = -1.39455e-19
DICPCG:  Solving for p, Initial residual = 0.772326, Final residual = 9.2227e-07, No Iterations 398
time step continuity errors : sum local = 6.1685e-10, global = 2.44457e-20, cumulative = -1.15009e-19
ExecutionTime = 6.7 s  ClockTime = 7 s

Time = 0.005

Courant Number mean: 0.0645663 max: 0.964801
smoothSolver:  Solving for Ux, Initial residual = 0.0271492, Final residual = 9.78343e-06, No Iterations 112
smoothSolver:  Solving for Uy, Initial residual = 0.168501, Final residual = 9.76082e-06, No Iterations 148
DICPCG:  Solving for p, Initial residual = 0.880977, Final residual = 0.0440119, No Iterations 262
time step continuity errors : sum local = 2.55545e-05, global = 4.08369e-20, cumulative = -7.41726e-20
DICPCG:  Solving for p, Initial residual = 0.772222, Final residual = 9.11442e-07, No Iterations 389
time step continuity errors : sum local = 5.79496e-10, global = -2.14569e-20, cumulative = -9.56295e-20
ExecutionTime = 7.63 s  ClockTime = 7 s

Time = 0.005625

Courant Number mean: 0.0677816 max: 0.967488
smoothSolver:  Solving for Ux, Initial residual = 0.0293488, Final residual = 9.77555e-06, No Iterations 118
smoothSolver:  Solving for Uy, Initial residual = 0.127409, Final residual = 9.55127e-06, No Iterations 138
DICPCG:  Solving for p, Initial residual = 0.890688, Final residual = 0.0439675, No Iterations 248
time step continuity errors : sum local = 2.37508e-05, global = -1.12445e-20, cumulative = -1.06874e-19
DICPCG:  Solving for p, Initial residual = 0.793567, Final residual = 9.99745e-07, No Iterations 392
time step continuity errors : sum local = 5.78993e-10, global = -1.91196e-20, cumulative = -1.25994e-19
ExecutionTime = 8.55 s  ClockTime = 8 s

Time = 0.00625

Courant Number mean: 0.0704123 max: 0.962952
smoothSolver:  Solving for Ux, Initial residual = 0.0235841, Final residual = 9.81615e-06, No Iterations 114
smoothSolver:  Solving for Uy, Initial residual = 0.184951, Final residual = 9.49141e-06, No Iterations 153
DICPCG:  Solving for p, Initial residual = 0.87065, Final residual = 0.040682, No Iterations 141
time step continuity errors : sum local = 2.33386e-05, global = 3.5773e-20, cumulative = -9.02206e-20
DICPCG:  Solving for p, Initial residual = 0.836987, Final residual = 9.7227e-07, No Iterations 388
time step continuity errors : sum local = 5.21464e-10, global = -1.97404e-20, cumulative = -1.09961e-19
ExecutionTime = 9.4 s  ClockTime = 9 s

Time = 0.006875

Courant Number mean: 0.0731906 max: 0.970884
smoothSolver:  Solving for Ux, Initial residual = 0.0367778, Final residual = 9.59044e-06, No Iterations 124
smoothSolver:  Solving for Uy, Initial residual = 0.247825, Final residual = 9.40889e-06, No Iterations 158
DICPCG:  Solving for p, Initial residual = 0.868838, Final residual = 0.0431531, No Iterations 268
time step continuity errors : sum local = 2.40724e-05, global = -7.2947e-21, cumulative = -1.17256e-19
DICPCG:  Solving for p, Initial residual = 0.460566, Final residual = 9.24635e-07, No Iterations 394
time step continuity errors : sum local = 9.38405e-10, global = 2.56903e-20, cumulative = -9.15654e-20
ExecutionTime = 10.37 s  ClockTime = 10 s

Time = 0.0075

Courant Number mean: 0.0765996 max: 0.968836
smoothSolver:  Solving for Ux, Initial residual = 0.0325212, Final residual = 9.98925e-06, No Iterations 117
smoothSolver:  Solving for Uy, Initial residual = 0.147203, Final residual = 9.63383e-06, No Iterations 138
DICPCG:  Solving for p, Initial residual = 0.860648, Final residual = 0.0418173, No Iterations 261
time step continuity errors : sum local = 2.29618e-05, global = 1.86051e-20, cumulative = -7.29603e-20
DICPCG:  Solving for p, Initial residual = 0.595643, Final residual = 9.59168e-07, No Iterations 394
time step continuity errors : sum local = 7.35315e-10, global = -4.3403e-20, cumulative = -1.16363e-19
ExecutionTime = 11.35 s  ClockTime = 11 s

Time = 0.008125

Courant Number mean: 0.0777866 max: 0.970774
smoothSolver:  Solving for Ux, Initial residual = 0.0233898, Final residual = 9.47541e-06, No Iterations 111
smoothSolver:  Solving for Uy, Initial residual = 0.134802, Final residual = 9.51396e-06, No Iterations 144
DICPCG:  Solving for p, Initial residual = 0.863087, Final residual = 0.0421198, No Iterations 267
time step continuity errors : sum local = 2.1442e-05, global = -7.73983e-20, cumulative = -1.93762e-19
DICPCG:  Solving for p, Initial residual = 0.644698, Final residual = 9.89802e-07, No Iterations 394
time step continuity errors : sum local = 6.51199e-10, global = 4.42441e-20, cumulative = -1.49517e-19
ExecutionTime = 12.29 s  ClockTime = 12 s

Time = 0.00875

Courant Number mean: 0.0799016 max: 0.975208
smoothSolver:  Solving for Ux, Initial residual = 0.0256479, Final residual = 9.91169e-06, No Iterations 117
smoothSolver:  Solving for Uy, Initial residual = 0.0814177, Final residual = 9.80404e-06, No Iterations 124
DICPCG:  Solving for p, Initial residual = 0.855026, Final residual = 0.0413588, No Iterations 265
time step continuity errors : sum local = 2.06588e-05, global = 2.48865e-20, cumulative = -1.24631e-19
DICPCG:  Solving for p, Initial residual = 0.699379, Final residual = 9.22747e-07, No Iterations 392
time step continuity errors : sum local = 5.42547e-10, global = 2.44145e-20, cumulative = -1.00216e-19
ExecutionTime = 13.21 s  ClockTime = 13 s

Time = 0.009375

Courant Number mean: 0.0813187 max: 0.969139
smoothSolver:  Solving for Ux, Initial residual = 0.0178721, Final residual = 9.47184e-06, No Iterations 107
smoothSolver:  Solving for Uy, Initial residual = 0.102029, Final residual = 9.55111e-06, No Iterations 141
DICPCG:  Solving for p, Initial residual = 0.841689, Final residual = 0.0411893, No Iterations 259
time step continuity errors : sum local = 1.83332e-05, global = -6.06142e-20, cumulative = -1.60831e-19
DICPCG:  Solving for p, Initial residual = 0.664899, Final residual = 9.24589e-07, No Iterations 386
time step continuity errors : sum local = 5.04915e-10, global = -6.37527e-20, cumulative = -2.24583e-19
ExecutionTime = 14.12 s  ClockTime = 14 s

Time = 0.01

Courant Number mean: 0.0831913 max: 0.975621
smoothSolver:  Solving for Ux, Initial residual = 0.0250258, Final residual = 9.726e-06, No Iterations 120
smoothSolver:  Solving for Uy, Initial residual = 0.0634875, Final residual = 9.47255e-06, No Iterations 125
DICPCG:  Solving for p, Initial residual = 0.825134, Final residual = 0.0401081, No Iterations 269
time step continuity errors : sum local = 1.62674e-05, global = -2.24166e-20, cumulative = -2.47e-19
DICPCG:  Solving for p, Initial residual = 0.697887, Final residual = 8.88351e-07, No Iterations 390
time step continuity errors : sum local = 4.11454e-10, global = 9.18805e-22, cumulative = -2.46081e-19
ExecutionTime = 15.08 s  ClockTime = 15 s

Time = 0.010625

Courant Number mean: 0.0844613 max: 0.969573
smoothSolver:  Solving for Ux, Initial residual = 0.0125133, Final residual = 9.73286e-06, No Iterations 101
smoothSolver:  Solving for Uy, Initial residual = 0.0670195, Final residual = 9.42185e-06, No Iterations 133
DICPCG:  Solving for p, Initial residual = 0.796176, Final residual = 0.039274, No Iterations 259
time step continuity errors : sum local = 1.38717e-05, global = -2.78915e-21, cumulative = -2.4887e-19
DICPCG:  Solving for p, Initial residual = 0.657621, Final residual = 9.33233e-07, No Iterations 391
time step continuity errors : sum local = 3.81458e-10, global = 1.69264e-20, cumulative = -2.31944e-19
ExecutionTime = 15.98 s  ClockTime = 16 s

Time = 0.01125

Courant Number mean: 0.0860484 max: 0.977462
smoothSolver:  Solving for Ux, Initial residual = 0.0135598, Final residual = 9.94727e-06, No Iterations 104
smoothSolver:  Solving for Uy, Initial residual = 0.0444233, Final residual = 9.97183e-06, No Iterations 121
DICPCG:  Solving for p, Initial residual = 0.784115, Final residual = 0.0389125, No Iterations 198
time step continuity errors : sum local = 1.26736e-05, global = -8.96069e-21, cumulative = -2.40905e-19
DICPCG:  Solving for p, Initial residual = 0.697613, Final residual = 9.37032e-07, No Iterations 390
time step continuity errors : sum local = 3.29746e-10, global = -1.01679e-20, cumulative = -2.51072e-19
ExecutionTime = 16.84 s  ClockTime = 17 s

Time = 0.011875

Courant Number mean: 0.0873603 max: 0.973165
smoothSolver:  Solving for Ux, Initial residual = 0.0103397, Final residual = 9.67319e-06, No Iterations 98
smoothSolver:  Solving for Uy, Initial residual = 0.0650952, Final residual = 9.93235e-06, No Iterations 135
DICPCG:  Solving for p, Initial residual = 0.761818, Final residual = 0.0355849, No Iterations 245
time step continuity errors : sum local = 1.07771e-05, global = 1.7964e-20, cumulative = -2.33108e-19
DICPCG:  Solving for p, Initial residual = 0.661747, Final residual = 9.65593e-07, No Iterations 392
time step continuity errors : sum local = 3.23385e-10, global = -9.75153e-21, cumulative = -2.4286e-19
ExecutionTime = 17.73 s  ClockTime = 18 s

Time = 0.0125

Courant Number mean: 0.0886776 max: 0.976778
smoothSolver:  Solving for Ux, Initial residual = 0.00958031, Final residual = 9.88355e-06, No Iterations 100
smoothSolver:  Solving for Uy, Initial residual = 0.0433613, Final residual = 9.75319e-06, No Iterations 122
DICPCG:  Solving for p, Initial residual = 0.74106, Final residual = 0.0356176, No Iterations 247
time step continuity errors : sum local = 9.76561e-06, global = -3.62964e-20, cumulative = -2.79156e-19
DICPCG:  Solving for p, Initial residual = 0.65988, Final residual = 9.50681e-07, No Iterations 388
time step continuity errors : sum local = 2.81528e-10, global = -4.10272e-20, cumulative = -3.20184e-19
ExecutionTime = 18.73 s  ClockTime = 19 s

Time = 0.013125

Courant Number mean: 0.0898983 max: 0.97763
smoothSolver:  Solving for Ux, Initial residual = 0.00945096, Final residual = 9.89261e-06, No Iterations 102
smoothSolver:  Solving for Uy, Initial residual = 0.0344559, Final residual = 9.40271e-06, No Iterations 122
DICPCG:  Solving for p, Initial residual = 0.715572, Final residual = 0.0357129, No Iterations 255
time step continuity errors : sum local = 8.9617e-06, global = 3.53607e-20, cumulative = -2.84823e-19
DICPCG:  Solving for p, Initial residual = 0.629202, Final residual = 9.39633e-07, No Iterations 386
time step continuity errors : sum local = 2.58771e-10, global = -2.11052e-21, cumulative = -2.86933e-19
ExecutionTime = 19.62 s  ClockTime = 19 s

Time = 0.01375

Courant Number mean: 0.0909993 max: 0.975394
smoothSolver:  Solving for Ux, Initial residual = 0.00679369, Final residual = 9.80065e-06, No Iterations 93
smoothSolver:  Solving for Uy, Initial residual = 0.0359565, Final residual = 9.98796e-06, No Iterations 123
DICPCG:  Solving for p, Initial residual = 0.68812, Final residual = 0.0329497, No Iterations 94
time step continuity errors : sum local = 8.46167e-06, global = -3.58479e-20, cumulative = -3.22781e-19
DICPCG:  Solving for p, Initial residual = 0.6628, Final residual = 9.23958e-07, No Iterations 388
time step continuity errors : sum local = 2.11281e-10, global = 3.96134e-20, cumulative = -2.83168e-19
ExecutionTime = 20.36 s  ClockTime = 20 s

Time = 0.014375

Courant Number mean: 0.0921427 max: 0.978236
smoothSolver:  Solving for Ux, Initial residual = 0.0212504, Final residual = 9.77706e-06, No Iterations 118
smoothSolver:  Solving for Uy, Initial residual = 0.101293, Final residual = 9.93878e-06, No Iterations 144
DICPCG:  Solving for p, Initial residual = 0.710869, Final residual = 0.0347863, No Iterations 270
time step continuity errors : sum local = 9.36055e-06, global = -3.53878e-20, cumulative = -3.18556e-19
DICPCG:  Solving for p, Initial residual = 0.338613, Final residual = 9.32359e-07, No Iterations 394
time step continuity errors : sum local = 5.10792e-10, global = -2.47524e-21, cumulative = -3.21031e-19
ExecutionTime = 21.32 s  ClockTime = 21 s

Time = 0.015

Courant Number mean: 0.0939127 max: 0.976828
smoothSolver:  Solving for Ux, Initial residual = 0.0157299, Final residual = 9.95501e-06, No Iterations 106
smoothSolver:  Solving for Uy, Initial residual = 0.0626388, Final residual = 9.61713e-06, No Iterations 126
DICPCG:  Solving for p, Initial residual = 0.721347, Final residual = 0.034494, No Iterations 248
time step continuity errors : sum local = 9.31046e-06, global = -6.88718e-20, cumulative = -3.89903e-19
DICPCG:  Solving for p, Initial residual = 0.463603, Final residual = 9.84672e-07, No Iterations 388
time step continuity errors : sum local = 3.96914e-10, global = 1.08993e-20, cumulative = -3.79004e-19
ExecutionTime = 22.23 s  ClockTime = 22 s

Time = 0.015625

Courant Number mean: 0.0943715 max: 0.977786
smoothSolver:  Solving for Ux, Initial residual = 0.0111149, Final residual = 9.6288e-06, No Iterations 100
smoothSolver:  Solving for Uy, Initial residual = 0.0391031, Final residual = 9.40053e-06, No Iterations 120
DICPCG:  Solving for p, Initial residual = 0.72794, Final residual = 0.0339006, No Iterations 248
time step continuity errors : sum local = 9.23256e-06, global = 9.2515e-21, cumulative = -3.69752e-19
DICPCG:  Solving for p, Initial residual = 0.536868, Final residual = 9.35693e-07, No Iterations 390
time step continuity errors : sum local = 3.24679e-10, global = 4.4725e-22, cumulative = -3.69305e-19
ExecutionTime = 23.12 s  ClockTime = 23 s

Time = 0.01625

Courant Number mean: 0.0952478 max: 0.977236
smoothSolver:  Solving for Ux, Initial residual = 0.0107221, Final residual = 9.5999e-06, No Iterations 103
smoothSolver:  Solving for Uy, Initial residual = 0.041425, Final residual = 9.68948e-06, No Iterations 125
DICPCG:  Solving for p, Initial residual = 0.72969, Final residual = 0.0349356, No Iterations 260
time step continuity errors : sum local = 9.55685e-06, global = 3.49031e-21, cumulative = -3.65815e-19
DICPCG:  Solving for p, Initial residual = 0.566168, Final residual = 9.39447e-07, No Iterations 387
time step continuity errors : sum local = 3.1852e-10, global = -3.28883e-20, cumulative = -3.98703e-19
ExecutionTime = 24.01 s  ClockTime = 24 s

Time = 0.016875

Courant Number mean: 0.0960921 max: 0.97881
smoothSolver:  Solving for Ux, Initial residual = 0.0115961, Final residual = 9.67221e-06, No Iterations 106
smoothSolver:  Solving for Uy, Initial residual = 0.0301276, Final residual = 9.57402e-06, No Iterations 114
DICPCG:  Solving for p, Initial residual = 0.7115, Final residual = 0.0347946, No Iterations 261
time step continuity errors : sum local = 8.81766e-06, global = 1.438e-20, cumulative = -3.84323e-19
DICPCG:  Solving for p, Initial residual = 0.565761, Final residual = 9.97416e-07, No Iterations 392
time step continuity errors : sum local = 3.02481e-10, global = -4.93648e-21, cumulative = -3.89259e-19
ExecutionTime = 24.89 s  ClockTime = 25 s

Time = 0.0175

Courant Number mean: 0.0968387 max: 0.976231
smoothSolver:  Solving for Ux, Initial residual = 0.00850489, Final residual = 9.6253e-06, No Iterations 98
smoothSolver:  Solving for Uy, Initial residual = 0.0380521, Final residual = 9.98723e-06, No Iterations 125
DICPCG:  Solving for p, Initial residual = 0.722725, Final residual = 0.0359985, No Iterations 267
time step continuity errors : sum local = 9.39057e-06, global = -1.43884e-20, cumulative = -4.03648e-19
DICPCG:  Solving for p, Initial residual = 0.632042, Final residual = 9.69049e-07, No Iterations 391
time step continuity errors : sum local = 2.80784e-10, global = 3.42403e-20, cumulative = -3.69408e-19
ExecutionTime = 25.82 s  ClockTime = 26 s

Time = 0.018125

Courant Number mean: 0.097631 max: 0.976443
smoothSolver:  Solving for Ux, Initial residual = 0.00765302, Final residual = 9.58891e-06, No Iterations 98
smoothSolver:  Solving for Uy, Initial residual = 0.0289757, Final residual = 9.70974e-06, No Iterations 116
DICPCG:  Solving for p, Initial residual = 0.686933, Final residual = 0.0311499, No Iterations 256
time step continuity errors : sum local = 7.21547e-06, global = -1.99906e-20, cumulative = -3.89398e-19
DICPCG:  Solving for p, Initial residual = 0.592599, Final residual = 9.61061e-07, No Iterations 387
time step continuity errors : sum local = 2.47944e-10, global = 3.11252e-20, cumulative = -3.58273e-19
ExecutionTime = 26.71 s  ClockTime = 27 s

Time = 0.01875

Courant Number mean: 0.0983706 max: 0.978361
smoothSolver:  Solving for Ux, Initial residual = 0.0063152, Final residual = 9.59188e-06, No Iterations 94
smoothSolver:  Solving for Uy, Initial residual = 0.0248203, Final residual = 9.85781e-06, No Iterations 114
DICPCG:  Solving for p, Initial residual = 0.656924, Final residual = 0.0313642, No Iterations 259
time step continuity errors : sum local = 6.578e-06, global = -1.19398e-20, cumulative = -3.70213e-19
DICPCG:  Solving for p, Initial residual = 0.594891, Final residual = 9.81076e-07, No Iterations 386
time step continuity errors : sum local = 2.20116e-10, global = 3.43198e-21, cumulative = -3.66781e-19
ExecutionTime = 27.59 s  ClockTime = 27 s

Time = 0.019375

Courant Number mean: 0.0990834 max: 0.978197
smoothSolver:  Solving for Ux, Initial residual = 0.00583584, Final residual = 9.68547e-06, No Iterations 94
smoothSolver:  Solving for Uy, Initial residual = 0.0219717, Final residual = 9.89975e-06, No Iterations 113
DICPCG:  Solving for p, Initial residual = 0.616902, Final residual = 0.0302154, No Iterations 256
time step continuity errors : sum local = 5.67004e-06, global = -5.63976e-20, cumulative = -4.23178e-19
DICPCG:  Solving for p, Initial residual = 0.549681, Final residual = 9.09155e-07, No Iterations 391
time step continuity errors : sum local = 1.84727e-10, global = 7.8878e-21, cumulative = -4.15291e-19
ExecutionTime = 28.46 s  ClockTime = 28 s

Time = 0.02

Courant Number mean: 0.0997657 max: 0.978081
smoothSolver:  Solving for Ux, Initial residual = 0.00533004, Final residual = 9.48893e-06, No Iterations 93
smoothSolver:  Solving for Uy, Initial residual = 0.0191251, Final residual = 9.73964e-06, No Iterations 111
DICPCG:  Solving for p, Initial residual = 0.597862, Final residual = 0.0294609, No Iterations 261
time step continuity errors : sum local = 5.2279e-06, global = -3.98869e-20, cumulative = -4.55178e-19
DICPCG:  Solving for p, Initial residual = 0.53506, Final residual = 9.87629e-07, No Iterations 384
time step continuity errors : sum local = 1.8927e-10, global = -1.64481e-20, cumulative = -4.71626e-19
ExecutionTime = 29.32 s  ClockTime = 29 s

Time = 0.020625

Courant Number mean: 0.100412 max: 0.977782
smoothSolver:  Solving for Ux, Initial residual = 0.00472715, Final residual = 9.86251e-06, No Iterations 91
smoothSolver:  Solving for Uy, Initial residual = 0.0189415, Final residual = 9.93025e-06, No Iterations 112
DICPCG:  Solving for p, Initial residual = 0.563031, Final residual = 0.0277199, No Iterations 259
time step continuity errors : sum local = 4.54007e-06, global = -3.59126e-20, cumulative = -5.07538e-19
DICPCG:  Solving for p, Initial residual = 0.507052, Final residual = 8.59218e-07, No Iterations 385
time step continuity errors : sum local = 1.50449e-10, global = -3.38296e-20, cumulative = -5.41368e-19
ExecutionTime = 30.17 s  ClockTime = 30 s

Time = 0.02125

Courant Number mean: 0.101043 max: 0.978959
smoothSolver:  Solving for Ux, Initial residual = 0.00393027, Final residual = 9.9154e-06, No Iterations 87
smoothSolver:  Solving for Uy, Initial residual = 0.0139144, Final residual = 9.99381e-06, No Iterations 104
DICPCG:  Solving for p, Initial residual = 0.534372, Final residual = 0.0263698, No Iterations 252
time step continuity errors : sum local = 4.03548e-06, global = -1.09643e-20, cumulative = -5.52332e-19
DICPCG:  Solving for p, Initial residual = 0.494335, Final residual = 8.83685e-07, No Iterations 384
time step continuity errors : sum local = 1.41151e-10, global = -2.30298e-20, cumulative = -5.75362e-19
ExecutionTime = 31.05 s  ClockTime = 31 s

Time = 0.021875

Courant Number mean: 0.101648 max: 0.978507
smoothSolver:  Solving for Ux, Initial residual = 0.00370473, Final residual = 9.41453e-06, No Iterations 89
smoothSolver:  Solving for Uy, Initial residual = 0.0173364, Final residual = 9.44513e-06, No Iterations 114
DICPCG:  Solving for p, Initial residual = 0.500495, Final residual = 0.0219701, No Iterations 264
time step continuity errors : sum local = 3.14008e-06, global = -1.96003e-21, cumulative = -5.77322e-19
DICPCG:  Solving for p, Initial residual = 0.463811, Final residual = 8.81754e-07, No Iterations 383
time step continuity errors : sum local = 1.31794e-10, global = 1.69243e-20, cumulative = -5.60398e-19
ExecutionTime = 31.92 s  ClockTime = 32 s

Time = 0.0225

Courant Number mean: 0.102235 max: 0.979576
smoothSolver:  Solving for Ux, Initial residual = 0.00292898, Final residual = 9.75409e-06, No Iterations 83
smoothSolver:  Solving for Uy, Initial residual = 0.0118438, Final residual = 9.82594e-06, No Iterations 103
DICPCG:  Solving for p, Initial residual = 0.43294, Final residual = 0.0214265, No Iterations 94
time step continuity errors : sum local = 3.10391e-06, global = 2.21743e-20, cumulative = -5.38223e-19
DICPCG:  Solving for p, Initial residual = 0.41648, Final residual = 9.71756e-07, No Iterations 380
time step continuity errors : sum local = 1.22109e-10, global = 8.45784e-21, cumulative = -5.29766e-19
ExecutionTime = 32.62 s  ClockTime = 33 s

Time = 0.023125

Courant Number mean: 0.102786 max: 0.978517
smoothSolver:  Solving for Ux, Initial residual = 0.00779687, Final residual = 9.94539e-06, No Iterations 101
smoothSolver:  Solving for Uy, Initial residual = 0.0405439, Final residual = 9.56429e-06, No Iterations 130
DICPCG:  Solving for p, Initial residual = 0.501697, Final residual = 0.0235488, No Iterations 273
time step continuity errors : sum local = 3.52703e-06, global = -1.94698e-20, cumulative = -5.49235e-19
DICPCG:  Solving for p, Initial residual = 0.267884, Final residual = 9.31044e-07, No Iterations 395
time step continuity errors : sum local = 2.53021e-10, global = -6.98591e-21, cumulative = -5.56221e-19
ExecutionTime = 33.53 s  ClockTime = 33 s

Time = 0.02375

Courant Number mean: 0.103643 max: 0.979623
smoothSolver:  Solving for Ux, Initial residual = 0.00669921, Final residual = 9.49583e-06, No Iterations 93
smoothSolver:  Solving for Uy, Initial residual = 0.0245246, Final residual = 9.9957e-06, No Iterations 111
DICPCG:  Solving for p, Initial residual = 0.511421, Final residual = 0.0253341, No Iterations 252
time step continuity errors : sum local = 3.78601e-06, global = 5.45674e-20, cumulative = -5.01654e-19
DICPCG:  Solving for p, Initial residual = 0.352679, Final residual = 9.46732e-07, No Iterations 388
time step continuity errors : sum local = 1.97527e-10, global = -5.78567e-20, cumulative = -5.59511e-19
ExecutionTime = 34.39 s  ClockTime = 34 s

Time = 0.024375

Courant Number mean: 0.103947 max: 0.979581
smoothSolver:  Solving for Ux, Initial residual = 0.00472847, Final residual = 9.86856e-06, No Iterations 87
smoothSolver:  Solving for Uy, Initial residual = 0.0150218, Final residual = 9.3817e-06, No Iterations 105
DICPCG:  Solving for p, Initial residual = 0.521489, Final residual = 0.0256176, No Iterations 249
time step continuity errors : sum local = 3.88115e-06, global = -7.71231e-20, cumulative = -6.36634e-19
DICPCG:  Solving for p, Initial residual = 0.410812, Final residual = 9.22219e-07, No Iterations 391
time step continuity errors : sum local = 1.70886e-10, global = 4.29889e-21, cumulative = -6.32335e-19
ExecutionTime = 35.23 s  ClockTime = 35 s

Time = 0.025

Courant Number mean: 0.104425 max: 0.979263
smoothSolver:  Solving for Ux, Initial residual = 0.00428768, Final residual = 9.50713e-06, No Iterations 89
smoothSolver:  Solving for Uy, Initial residual = 0.0166293, Final residual = 9.70743e-06, No Iterations 111
DICPCG:  Solving for p, Initial residual = 0.522958, Final residual = 0.0247887, No Iterations 241
time step continuity errors : sum local = 3.75063e-06, global = 7.85305e-20, cumulative = -5.53804e-19
DICPCG:  Solving for p, Initial residual = 0.429523, Final residual = 8.70925e-07, No Iterations 383
time step continuity errors : sum local = 1.56244e-10, global = -1.83251e-20, cumulative = -5.72129e-19
ExecutionTime = 36.21 s  ClockTime = 36 s

Time = 0.025625

Courant Number mean: 0.104882 max: 0.980534
smoothSolver:  Solving for Ux, Initial residual = 0.00540598, Final residual = 9.63573e-06, No Iterations 95
smoothSolver:  Solving for Uy, Initial residual = 0.0125476, Final residual = 9.78393e-06, No Iterations 102
DICPCG:  Solving for p, Initial residual = 0.517099, Final residual = 0.025393, No Iterations 259
time step continuity errors : sum local = 3.75194e-06, global = 9.86191e-21, cumulative = -5.62268e-19
DICPCG:  Solving for p, Initial residual = 0.44503, Final residual = 8.53238e-07, No Iterations 388
time step continuity errors : sum local = 1.41343e-10, global = 1.52568e-20, cumulative = -5.47011e-19
ExecutionTime = 37.07 s  ClockTime = 37 s

Time = 0.02625

Courant Number mean: 0.105294 max: 0.97831
smoothSolver:  Solving for Ux, Initial residual = 0.00349166, Final residual = 9.77895e-06, No Iterations 83
smoothSolver:  Solving for Uy, Initial residual = 0.0160596, Final residual = 9.62691e-06, No Iterations 111
DICPCG:  Solving for p, Initial residual = 0.500545, Final residual = 0.0244429, No Iterations 260
time step continuity errors : sum local = 3.51769e-06, global = 3.85789e-20, cumulative = -5.08432e-19
DICPCG:  Solving for p, Initial residual = 0.435701, Final residual = 9.92605e-07, No Iterations 385
time step continuity errors : sum local = 1.5601e-10, global = -2.16924e-20, cumulative = -5.30124e-19
ExecutionTime = 37.95 s  ClockTime = 38 s

Time = 0.026875

Courant Number mean: 0.105746 max: 0.980307
smoothSolver:  Solving for Ux, Initial residual = 0.00399749, Final residual = 9.78968e-06, No Iterations 89
smoothSolver:  Solving for Uy, Initial residual = 0.010697, Final residual = 9.38246e-06, No Iterations 101
DICPCG:  Solving for p, Initial residual = 0.502046, Final residual = 0.023495, No Iterations 261
time step continuity errors : sum local = 3.3867e-06, global = -3.63094e-20, cumulative = -5.66434e-19
DICPCG:  Solving for p, Initial residual = 0.434286, Final residual = 9.14336e-07, No Iterations 384
time step continuity errors : sum local = 1.45304e-10, global = 2.58944e-20, cumulative = -5.40539e-19
ExecutionTime = 38.8 s  ClockTime = 39 s

Time = 0.0275

Courant Number mean: 0.106142 max: 0.979592
smoothSolver:  Solving for Ux, Initial residual = 0.00274331, Final residual = 9.96752e-06, No Iterations 79
smoothSolver:  Solving for Uy, Initial residual = 0.0129469, Final residual = 9.57953e-06, No Iterations 109
DICPCG:  Solving for p, Initial residual = 0.480383, Final residual = 0.0237027, No Iterations 243
time step continuity errors : sum local = 3.27446e-06, global = 6.40529e-20, cumulative = -4.76486e-19
DICPCG:  Solving for p, Initial residual = 0.43878, Final residual = 9.77003e-07, No Iterations 382
time step continuity errors : sum local = 1.41505e-10, global = -4.52551e-22, cumulative = -4.76939e-19
ExecutionTime = 39.62 s  ClockTime = 40 s

Time = 0.028125

Courant Number mean: 0.106545 max: 0.97995
smoothSolver:  Solving for Ux, Initial residual = 0.00488944, Final residual = 9.5281e-06, No Iterations 97
smoothSolver:  Solving for Uy, Initial residual = 0.0119124, Final residual = 9.53223e-06, No Iterations 107
DICPCG:  Solving for p, Initial residual = 0.455985, Final residual = 0.0226403, No Iterations 265
time step continuity errors : sum local = 2.96348e-06, global = -1.98029e-20, cumulative = -4.96742e-19
DICPCG:  Solving for p, Initial residual = 0.420234, Final residual = 9.13125e-07, No Iterations 383
time step continuity errors : sum local = 1.25546e-10, global = -5.68528e-21, cumulative = -5.02427e-19
ExecutionTime = 40.49 s  ClockTime = 40 s

Time = 0.02875

Courant Number mean: 0.106895 max: 0.979298
smoothSolver:  Solving for Ux, Initial residual = 0.00250947, Final residual = 9.47564e-06, No Iterations 78
smoothSolver:  Solving for Uy, Initial residual = 0.00876695, Final residual = 9.78417e-06, No Iterations 99
DICPCG:  Solving for p, Initial residual = 0.417457, Final residual = 0.0208225, No Iterations 246
time step continuity errors : sum local = 2.55015e-06, global = 4.99443e-21, cumulative = -4.97433e-19
DICPCG:  Solving for p, Initial residual = 0.386053, Final residual = 9.95366e-07, No Iterations 385
time step continuity errors : sum local = 1.26333e-10, global = 1.86796e-20, cumulative = -4.78753e-19
ExecutionTime = 41.32 s  ClockTime = 41 s

Time = 0.029375

Courant Number mean: 0.107279 max: 0.980073
smoothSolver:  Solving for Ux, Initial residual = 0.0023219, Final residual = 9.8169e-06, No Iterations 80
smoothSolver:  Solving for Uy, Initial residual = 0.00788925, Final residual = 9.67193e-06, No Iterations 100
DICPCG:  Solving for p, Initial residual = 0.390904, Final residual = 0.0191468, No Iterations 96
time step continuity errors : sum local = 2.57407e-06, global = -5.56796e-21, cumulative = -4.84321e-19
DICPCG:  Solving for p, Initial residual = 0.375661, Final residual = 9.78299e-07, No Iterations 390
time step continuity errors : sum local = 1.14298e-10, global = 1.88752e-20, cumulative = -4.65446e-19
ExecutionTime = 42.03 s  ClockTime = 42 s

Time = 0.03

Courant Number mean: 0.107636 max: 0.980245
smoothSolver:  Solving for Ux, Initial residual = 0.00670146, Final residual = 9.87299e-06, No Iterations 100
smoothSolver:  Solving for Uy, Initial residual = 0.0246183, Final residual = 9.76111e-06, No Iterations 121
DICPCG:  Solving for p, Initial residual = 0.444697, Final residual = 0.0205749, No Iterations 273
time step continuity errors : sum local = 2.73323e-06, global = -1.08073e-20, cumulative = -4.76253e-19
DICPCG:  Solving for p, Initial residual = 0.255755, Final residual = 9.8735e-07, No Iterations 394
time step continuity errors : sum local = 2.21072e-10, global = 2.03762e-20, cumulative = -4.55877e-19
ExecutionTime = 42.96 s  ClockTime = 43 s

Time = 0.030625

Courant Number mean: 0.108203 max: 0.980293
smoothSolver:  Solving for Ux, Initial residual = 0.00497817, Final residual = 9.72025e-06, No Iterations 88
smoothSolver:  Solving for Uy, Initial residual = 0.0179479, Final residual = 9.75307e-06, No Iterations 108
DICPCG:  Solving for p, Initial residual = 0.457158, Final residual = 0.0212542, No Iterations 252
time step continuity errors : sum local = 2.85284e-06, global = -5.41887e-20, cumulative = -5.10066e-19
DICPCG:  Solving for p, Initial residual = 0.329525, Final residual = 8.72417e-07, No Iterations 390
time step continuity errors : sum local = 1.56526e-10, global = -2.21234e-20, cumulative = -5.32189e-19
ExecutionTime = 43.81 s  ClockTime = 44 s

Time = 0.03125

Courant Number mean: 0.108397 max: 0.980738
smoothSolver:  Solving for Ux, Initial residual = 0.00317745, Final residual = 9.44163e-06, No Iterations 80
smoothSolver:  Solving for Uy, Initial residual = 0.0122419, Final residual = 9.76135e-06, No Iterations 102
DICPCG:  Solving for p, Initial residual = 0.459672, Final residual = 0.0227499, No Iterations 246
time step continuity errors : sum local = 3.04732e-06, global = -2.81448e-20, cumulative = -5.60334e-19
DICPCG:  Solving for p, Initial residual = 0.370729, Final residual = 9.62411e-07, No Iterations 392
time step continuity errors : sum local = 1.54684e-10, global = -3.11777e-20, cumulative = -5.91511e-19
ExecutionTime = 44.64 s  ClockTime = 45 s

Time = 0.031875

Courant Number mean: 0.108702 max: 0.980762
smoothSolver:  Solving for Ux, Initial residual = 0.00352364, Final residual = 9.63759e-06, No Iterations 87
smoothSolver:  Solving for Uy, Initial residual = 0.00913116, Final residual = 9.42685e-06, No Iterations 98
DICPCG:  Solving for p, Initial residual = 0.455468, Final residual = 0.0219673, No Iterations 239
time step continuity errors : sum local = 2.92679e-06, global = 3.66687e-20, cumulative = -5.54843e-19
DICPCG:  Solving for p, Initial residual = 0.380668, Final residual = 9.87445e-07, No Iterations 387
time step continuity errors : sum local = 1.52435e-10, global = -2.35925e-20, cumulative = -5.78435e-19
ExecutionTime = 45.45 s  ClockTime = 45 s

Time = 0.0325

Courant Number mean: 0.108976 max: 0.979996
smoothSolver:  Solving for Ux, Initial residual = 0.00343845, Final residual = 9.6209e-06, No Iterations 87
smoothSolver:  Solving for Uy, Initial residual = 0.0100864, Final residual = 9.44606e-06, No Iterations 101
DICPCG:  Solving for p, Initial residual = 0.451123, Final residual = 0.0222252, No Iterations 247
time step continuity errors : sum local = 2.91817e-06, global = -1.97127e-20, cumulative = -5.98148e-19
DICPCG:  Solving for p, Initial residual = 0.40255, Final residual = 9.35497e-07, No Iterations 390
time step continuity errors : sum local = 1.32531e-10, global = 3.79371e-21, cumulative = -5.94354e-19
ExecutionTime = 46.31 s  ClockTime = 46 s

Time = 0.033125

Courant Number mean: 0.109255 max: 0.980506
smoothSolver:  Solving for Ux, Initial residual = 0.00297612, Final residual = 9.38474e-06, No Iterations 85
smoothSolver:  Solving for Uy, Initial residual = 0.0124642, Final residual = 9.4058e-06, No Iterations 109
DICPCG:  Solving for p, Initial residual = 0.43734, Final residual = 0.0212426, No Iterations 247
time step continuity errors : sum local = 2.72006e-06, global = 2.70766e-20, cumulative = -5.67278e-19
DICPCG:  Solving for p, Initial residual = 0.37749, Final residual = 8.86312e-07, No Iterations 385
time step continuity errors : sum local = 1.2349e-10, global = -3.18573e-20, cumulative = -5.99135e-19
ExecutionTime = 47.16 s  ClockTime = 47 s

Time = 0.03375

Courant Number mean: 0.109556 max: 0.980767
smoothSolver:  Solving for Ux, Initial residual = 0.00373745, Final residual = 9.77168e-06, No Iterations 90
smoothSolver:  Solving for Uy, Initial residual = 0.00945421, Final residual = 9.56312e-06, No Iterations 101
DICPCG:  Solving for p, Initial residual = 0.445205, Final residual = 0.0212688, No Iterations 260
time step continuity errors : sum local = 2.74554e-06, global = 5.94733e-20, cumulative = -5.39662e-19
DICPCG:  Solving for p, Initial residual = 0.40505, Final residual = 9.26947e-07, No Iterations 385
time step continuity errors : sum local = 1.26365e-10, global = 3.73396e-20, cumulative = -5.02322e-19
ExecutionTime = 48.03 s  ClockTime = 48 s

Time = 0.034375

Courant Number mean: 0.109789 max: 0.979852
smoothSolver:  Solving for Ux, Initial residual = 0.00290357, Final residual = 9.53788e-06, No Iterations 85
smoothSolver:  Solving for Uy, Initial residual = 0.0100773, Final residual = 9.92265e-06, No Iterations 104
DICPCG:  Solving for p, Initial residual = 0.421747, Final residual = 0.020884, No Iterations 244
time step continuity errors : sum local = 2.58994e-06, global = 2.35103e-20, cumulative = -4.78812e-19
DICPCG:  Solving for p, Initial residual = 0.383215, Final residual = 9.94245e-07, No Iterations 386
time step continuity errors : sum local = 1.30766e-10, global = -3.70555e-20, cumulative = -5.15867e-19
ExecutionTime = 48.86 s  ClockTime = 49 s

Time = 0.035

Courant Number mean: 0.11008 max: 0.980863
smoothSolver:  Solving for Ux, Initial residual = 0.00369776, Final residual = 9.50205e-06, No Iterations 92
smoothSolver:  Solving for Uy, Initial residual = 0.00806465, Final residual = 9.70401e-06, No Iterations 98
DICPCG:  Solving for p, Initial residual = 0.396548, Final residual = 0.0188146, No Iterations 267
time step continuity errors : sum local = 2.22362e-06, global = 5.88946e-21, cumulative = -5.09978e-19
DICPCG:  Solving for p, Initial residual = 0.368268, Final residual = 9.78542e-07, No Iterations 383
time step continuity errors : sum local = 1.20165e-10, global = -3.09477e-20, cumulative = -5.40926e-19
ExecutionTime = 49.71 s  ClockTime = 50 s

Time = 0.035625

Courant Number mean: 0.110306 max: 0.98028
smoothSolver:  Solving for Ux, Initial residual = 0.0020324, Final residual = 9.6943e-06, No Iterations 75
smoothSolver:  Solving for Uy, Initial residual = 0.0071624, Final residual = 9.77015e-06, No Iterations 96
DICPCG:  Solving for p, Initial residual = 0.370979, Final residual = 0.0179202, No Iterations 260
time step continuity errors : sum local = 2.02688e-06, global = -7.02651e-21, cumulative = -5.47952e-19
DICPCG:  Solving for p, Initial residual = 0.34557, Final residual = 9.79021e-07, No Iterations 382
time step continuity errors : sum local = 1.14603e-10, global = -4.1866e-20, cumulative = -5.89818e-19
ExecutionTime = 50.53 s  ClockTime = 50 s

Time = 0.03625

Courant Number mean: 0.110564 max: 0.980974
smoothSolver:  Solving for Ux, Initial residual = 0.00185129, Final residual = 9.95825e-06, No Iterations 75
smoothSolver:  Solving for Uy, Initial residual = 0.00528452, Final residual = 9.94755e-06, No Iterations 88
DICPCG:  Solving for p, Initial residual = 0.345128, Final residual = 0.0166884, No Iterations 245
time step continuity errors : sum local = 1.80889e-06, global = 7.14607e-21, cumulative = -5.82672e-19
DICPCG:  Solving for p, Initial residual = 0.321912, Final residual = 8.52648e-07, No Iterations 383
time step continuity errors : sum local = 9.52122e-11, global = 1.79325e-20, cumulative = -5.6474e-19
ExecutionTime = 51.35 s  ClockTime = 51 s

Time = 0.036875

Courant Number mean: 0.110792 max: 0.980646
smoothSolver:  Solving for Ux, Initial residual = 0.00137878, Final residual = 9.87072e-06, No Iterations 69
smoothSolver:  Solving for Uy, Initial residual = 0.00704969, Final residual = 9.5381e-06, No Iterations 100
DICPCG:  Solving for p, Initial residual = 0.326864, Final residual = 0.0153287, No Iterations 259
time step continuity errors : sum local = 1.62445e-06, global = 5.00029e-20, cumulative = -5.14737e-19
DICPCG:  Solving for p, Initial residual = 0.299615, Final residual = 8.92507e-07, No Iterations 380
time step continuity errors : sum local = 9.85169e-11, global = -6.94181e-20, cumulative = -5.84155e-19
ExecutionTime = 52.16 s  ClockTime = 52 s

Time = 0.0375

Courant Number mean: 0.111027 max: 0.98099
smoothSolver:  Solving for Ux, Initial residual = 0.00215264, Final residual = 9.41851e-06, No Iterations 83
smoothSolver:  Solving for Uy, Initial residual = 0.00480047, Final residual = 9.68577e-06, No Iterations 89
DICPCG:  Solving for p, Initial residual = 0.311786, Final residual = 0.015074, No Iterations 144
time step continuity errors : sum local = 1.66123e-06, global = -4.39979e-20, cumulative = -6.28153e-19
DICPCG:  Solving for p, Initial residual = 0.299944, Final residual = 9.96684e-07, No Iterations 382
time step continuity errors : sum local = 1.02793e-10, global = 1.76676e-20, cumulative = -6.10485e-19
ExecutionTime = 53.03 s  ClockTime = 53 s

Time = 0.038125

Courant Number mean: 0.111233 max: 0.980497
smoothSolver:  Solving for Ux, Initial residual = 0.00316361, Final residual = 9.75505e-06, No Iterations 88
smoothSolver:  Solving for Uy, Initial residual = 0.011621, Final residual = 9.4124e-06, No Iterations 110
DICPCG:  Solving for p, Initial residual = 0.321772, Final residual = 0.015791, No Iterations 268
time step continuity errors : sum local = 1.67592e-06, global = -1.59672e-20, cumulative = -6.26452e-19
DICPCG:  Solving for p, Initial residual = 0.234111, Final residual = 9.84209e-07, No Iterations 390
time step continuity errors : sum local = 1.38719e-10, global = -5.43747e-20, cumulative = -6.80827e-19
ExecutionTime = 53.9 s  ClockTime = 54 s

Time = 0.03875

Courant Number mean: 0.111536 max: 0.981333
smoothSolver:  Solving for Ux, Initial residual = 0.00239079, Final residual = 9.41106e-06, No Iterations 78
smoothSolver:  Solving for Uy, Initial residual = 0.00785751, Final residual = 9.85517e-06, No Iterations 95
DICPCG:  Solving for p, Initial residual = 0.308639, Final residual = 0.0149378, No Iterations 265
time step continuity errors : sum local = 1.5469e-06, global = -2.45488e-21, cumulative = -6.83282e-19
DICPCG:  Solving for p, Initial residual = 0.258727, Final residual = 9.93822e-07, No Iterations 383
time step continuity errors : sum local = 1.18586e-10, global = -6.74455e-20, cumulative = -7.50727e-19
ExecutionTime = 54.72 s  ClockTime = 55 s

Time = 0.039375

Courant Number mean: 0.111686 max: 0.980784
smoothSolver:  Solving for Ux, Initial residual = 0.00201072, Final residual = 9.96514e-06, No Iterations 78
smoothSolver:  Solving for Uy, Initial residual = 0.00531124, Final residual = 9.56921e-06, No Iterations 91
DICPCG:  Solving for p, Initial residual = 0.286491, Final residual = 0.0141749, No Iterations 256
time step continuity errors : sum local = 1.42194e-06, global = 2.3057e-20, cumulative = -7.2767e-19
DICPCG:  Solving for p, Initial residual = 0.249854, Final residual = 9.02987e-07, No Iterations 383
time step continuity errors : sum local = 1.00724e-10, global = 7.94249e-21, cumulative = -7.19728e-19
ExecutionTime = 55.53 s  ClockTime = 56 s

Time = 0.04

Courant Number mean: 0.111882 max: 0.98106
smoothSolver:  Solving for Ux, Initial residual = 0.00164965, Final residual = 9.43726e-06, No Iterations 75
smoothSolver:  Solving for Uy, Initial residual = 0.00593462, Final residual = 9.81246e-06, No Iterations 96
DICPCG:  Solving for p, Initial residual = 0.275251, Final residual = 0.0126005, No Iterations 270
time step continuity errors : sum local = 1.24222e-06, global = -1.77012e-20, cumulative = -7.37429e-19
DICPCG:  Solving for p, Initial residual = 0.250911, Final residual = 9.13357e-07, No Iterations 383
time step continuity errors : sum local = 9.53454e-11, global = -1.52969e-20, cumulative = -7.52726e-19
ExecutionTime = 56.38 s  ClockTime = 56 s

Time = 0.040625

Courant Number mean: 0.11207 max: 0.980817
smoothSolver:  Solving for Ux, Initial residual = 0.00137388, Final residual = 9.51635e-06, No Iterations 72
smoothSolver:  Solving for Uy, Initial residual = 0.00448728, Final residual = 9.82663e-06, No Iterations 88
DICPCG:  Solving for p, Initial residual = 0.23946, Final residual = 0.0108402, No Iterations 249
time step continuity errors : sum local = 1.02108e-06, global = 2.35955e-20, cumulative = -7.2913e-19
DICPCG:  Solving for p, Initial residual = 0.217852, Final residual = 9.27561e-07, No Iterations 383
time step continuity errors : sum local = 9.2335e-11, global = -2.47749e-20, cumulative = -7.53905e-19
ExecutionTime = 57.17 s  ClockTime = 57 s

Time = 0.04125

Courant Number mean: 0.11225 max: 0.981183
smoothSolver:  Solving for Ux, Initial residual = 0.000997857, Final residual = 9.93836e-06, No Iterations 65
smoothSolver:  Solving for Uy, Initial residual = 0.00419296, Final residual = 9.62997e-06, No Iterations 90
DICPCG:  Solving for p, Initial residual = 0.217545, Final residual = 0.00989309, No Iterations 242
time step continuity errors : sum local = 9.04929e-07, global = 7.76695e-20, cumulative = -6.76236e-19
DICPCG:  Solving for p, Initial residual = 0.200578, Final residual = 9.31605e-07, No Iterations 379
time step continuity errors : sum local = 8.91559e-11, global = 9.82354e-20, cumulative = -5.78e-19
ExecutionTime = 57.98 s  ClockTime = 58 s

Time = 0.041875

Courant Number mean: 0.112426 max: 0.981146
smoothSolver:  Solving for Ux, Initial residual = 0.00113975, Final residual = 9.93415e-06, No Iterations 70
smoothSolver:  Solving for Uy, Initial residual = 0.00299964, Final residual = 9.88804e-06, No Iterations 81
DICPCG:  Solving for p, Initial residual = 0.200494, Final residual = 0.00938788, No Iterations 256
time step continuity errors : sum local = 8.42123e-07, global = -6.09029e-20, cumulative = -6.38903e-19
DICPCG:  Solving for p, Initial residual = 0.185688, Final residual = 9.71402e-07, No Iterations 380
time step continuity errors : sum local = 8.98956e-11, global = -1.10658e-20, cumulative = -6.49969e-19
ExecutionTime = 58.77 s  ClockTime = 59 s

Time = 0.0425

Courant Number mean: 0.112593 max: 0.980998
smoothSolver:  Solving for Ux, Initial residual = 0.000692647, Final residual = 9.96752e-06, No Iterations 57
smoothSolver:  Solving for Uy, Initial residual = 0.003728, Final residual = 9.93142e-06, No Iterations 89
DICPCG:  Solving for p, Initial residual = 0.181071, Final residual = 0.00870165, No Iterations 100
time step continuity errors : sum local = 8.23413e-07, global = -1.36921e-21, cumulative = -6.51338e-19
DICPCG:  Solving for p, Initial residual = 0.173205, Final residual = 8.86122e-07, No Iterations 379
time step continuity errors : sum local = 7.72876e-11, global = 2.70462e-20, cumulative = -6.24292e-19
ExecutionTime = 59.39 s  ClockTime = 59 s

Time = 0.043125

Courant Number mean: 0.112765 max: 0.981197
smoothSolver:  Solving for Ux, Initial residual = 0.00170381, Final residual = 9.72783e-06, No Iterations 78
smoothSolver:  Solving for Uy, Initial residual = 0.0101457, Final residual = 9.41944e-06, No Iterations 109
DICPCG:  Solving for p, Initial residual = 0.207311, Final residual = 0.00970821, No Iterations 267
time step continuity errors : sum local = 8.81894e-07, global = -1.45156e-20, cumulative = -6.38808e-19
DICPCG:  Solving for p, Initial residual = 0.157021, Final residual = 9.8568e-07, No Iterations 384
time step continuity errors : sum local = 1.13717e-10, global = -3.64182e-20, cumulative = -6.75226e-19
ExecutionTime = 60.23 s  ClockTime = 60 s

Time = 0.04375

Courant Number mean: 0.112976 max: 0.981077
smoothSolver:  Solving for Ux, Initial residual = 0.00139015, Final residual = 9.76836e-06, No Iterations 70
smoothSolver:  Solving for Uy, Initial residual = 0.00558029, Final residual = 9.83823e-06, No Iterations 89
DICPCG:  Solving for p, Initial residual = 0.203293, Final residual = 0.010061, No Iterations 250
time step continuity errors : sum local = 9.08721e-07, global = 4.37352e-20, cumulative = -6.31491e-19
DICPCG:  Solving for p, Initial residual = 0.174406, Final residual = 9.3975e-07, No Iterations 380
time step continuity errors : sum local = 9.50851e-11, global = 1.64593e-20, cumulative = -6.15031e-19
ExecutionTime = 61.05 s  ClockTime = 61 s

Time = 0.044375

Courant Number mean: 0.113097 max: 0.981094
smoothSolver:  Solving for Ux, Initial residual = 0.00122206, Final residual = 9.52869e-06, No Iterations 70
smoothSolver:  Solving for Uy, Initial residual = 0.00362338, Final residual = 9.81932e-06, No Iterations 86
DICPCG:  Solving for p, Initial residual = 0.205033, Final residual = 0.00980121, No Iterations 256
time step continuity errors : sum local = 8.83338e-07, global = -9.50103e-21, cumulative = -6.24532e-19
DICPCG:  Solving for p, Initial residual = 0.183602, Final residual = 9.83811e-07, No Iterations 379
time step continuity errors : sum local = 9.57454e-11, global = 5.64456e-20, cumulative = -5.68087e-19
ExecutionTime = 61.85 s  ClockTime = 62 s

Time = 0.045

Courant Number mean: 0.113244 max: 0.981042
smoothSolver:  Solving for Ux, Initial residual = 0.000884597, Final residual = 9.92604e-06, No Iterations 63
smoothSolver:  Solving for Uy, Initial residual = 0.00348237, Final residual = 9.87802e-06, No Iterations 86
DICPCG:  Solving for p, Initial residual = 0.191936, Final residual = 0.00940311, No Iterations 253
time step continuity errors : sum local = 8.35058e-07, global = -3.2483e-21, cumulative = -5.71335e-19
DICPCG:  Solving for p, Initial residual = 0.176866, Final residual = 9.26756e-07, No Iterations 381
time step continuity errors : sum local = 8.64041e-11, global = 5.08335e-21, cumulative = -5.66252e-19
ExecutionTime = 62.65 s  ClockTime = 63 s

Time = 0.045625

Courant Number mean: 0.113387 max: 0.9813
smoothSolver:  Solving for Ux, Initial residual = 0.00119661, Final residual = 9.68894e-06, No Iterations 73
smoothSolver:  Solving for Uy, Initial residual = 0.00272315, Final residual = 9.85969e-06, No Iterations 81
DICPCG:  Solving for p, Initial residual = 0.181535, Final residual = 0.00881421, No Iterations 267
time step continuity errors : sum local = 7.73514e-07, global = 4.12473e-20, cumulative = -5.25004e-19
DICPCG:  Solving for p, Initial residual = 0.167985, Final residual = 9.37609e-07, No Iterations 380
time step continuity errors : sum local = 8.54735e-11, global = -3.15815e-20, cumulative = -5.56586e-19
ExecutionTime = 63.45 s  ClockTime = 63 s

Time = 0.04625

Courant Number mean: 0.113517 max: 0.98094
smoothSolver:  Solving for Ux, Initial residual = 0.000897168, Final residual = 9.47331e-06, No Iterations 66
smoothSolver:  Solving for Uy, Initial residual = 0.00265484, Final residual = 9.80798e-06, No Iterations 82
DICPCG:  Solving for p, Initial residual = 0.175465, Final residual = 0.00864428, No Iterations 94
time step continuity errors : sum local = 8.56697e-07, global = 1.02206e-19, cumulative = -4.5438e-19
DICPCG:  Solving for p, Initial residual = 0.168722, Final residual = 9.77924e-07, No Iterations 370
time step continuity errors : sum local = 8.50321e-11, global = -2.51282e-20, cumulative = -4.79508e-19
ExecutionTime = 64.08 s  ClockTime = 64 s

Time = 0.046875

Courant Number mean: 0.11366 max: 0.981179
smoothSolver:  Solving for Ux, Initial residual = 0.00217604, Final residual = 9.69787e-06, No Iterations 82
smoothSolver:  Solving for Uy, Initial residual = 0.0124914, Final residual = 9.54162e-06, No Iterations 112
DICPCG:  Solving for p, Initial residual = 0.226329, Final residual = 0.010472, No Iterations 272
time step continuity errors : sum local = 9.78656e-07, global = -1.78445e-20, cumulative = -4.97352e-19
DICPCG:  Solving for p, Initial residual = 0.158595, Final residual = 9.62751e-07, No Iterations 385
time step continuity errors : sum local = 1.24341e-10, global = 1.85838e-21, cumulative = -4.95494e-19
ExecutionTime = 64.93 s  ClockTime = 65 s

Time = 0.0475

Courant Number mean: 0.11388 max: 0.981409
smoothSolver:  Solving for Ux, Initial residual = 0.0018505, Final residual = 9.39627e-06, No Iterations 74
smoothSolver:  Solving for Uy, Initial residual = 0.00685916, Final residual = 9.87138e-06, No Iterations 91
DICPCG:  Solving for p, Initial residual = 0.230271, Final residual = 0.0110912, No Iterations 252
time step continuity errors : sum local = 1.03605e-06, global = 8.06065e-20, cumulative = -4.14888e-19
DICPCG:  Solving for p, Initial residual = 0.188579, Final residual = 9.82036e-07, No Iterations 384
time step continuity errors : sum local = 1.07613e-10, global = -2.17477e-21, cumulative = -4.17062e-19
ExecutionTime = 65.75 s  ClockTime = 66 s

Time = 0.048125

Courant Number mean: 0.113948 max: 0.981287
smoothSolver:  Solving for Ux, Initial residual = 0.00137303, Final residual = 9.50994e-06, No Iterations 70
smoothSolver:  Solving for Uy, Initial residual = 0.00398171, Final residual = 9.74596e-06, No Iterations 85
DICPCG:  Solving for p, Initial residual = 0.232139, Final residual = 0.0114941, No Iterations 256
time step continuity errors : sum local = 1.07341e-06, global = -3.53516e-20, cumulative = -4.52414e-19
DICPCG:  Solving for p, Initial residual = 0.20349, Final residual = 9.19169e-07, No Iterations 382
time step continuity errors : sum local = 9.47392e-11, global = -1.22068e-20, cumulative = -4.64621e-19
ExecutionTime = 66.55 s  ClockTime = 67 s

Time = 0.04875

Courant Number mean: 0.114068 max: 0.981144
smoothSolver:  Solving for Ux, Initial residual = 0.00114003, Final residual = 9.62053e-06, No Iterations 67
smoothSolver:  Solving for Uy, Initial residual = 0.00381799, Final residual = 9.92405e-06, No Iterations 86
DICPCG:  Solving for p, Initial residual = 0.232064, Final residual = 0.0111396, No Iterations 257
time step continuity errors : sum local = 1.04162e-06, global = -4.94642e-20, cumulative = -5.14085e-19
DICPCG:  Solving for p, Initial residual = 0.205515, Final residual = 9.71142e-07, No Iterations 380
time step continuity errors : sum local = 9.71547e-11, global = -7.45511e-20, cumulative = -5.88636e-19
ExecutionTime = 67.36 s  ClockTime = 67 s

Time = 0.049375

Courant Number mean: 0.114179 max: 0.981441
smoothSolver:  Solving for Ux, Initial residual = 0.00111499, Final residual = 9.8145e-06, No Iterations 67
smoothSolver:  Solving for Uy, Initial residual = 0.00312305, Final residual = 9.97014e-06, No Iterations 81
DICPCG:  Solving for p, Initial residual = 0.233707, Final residual = 0.0111077, No Iterations 258
time step continuity errors : sum local = 1.0366e-06, global = -8.55906e-21, cumulative = -5.97195e-19
DICPCG:  Solving for p, Initial residual = 0.209652, Final residual = 9.91172e-07, No Iterations 381
time step continuity errors : sum local = 9.76139e-11, global = 1.76763e-20, cumulative = -5.79519e-19
ExecutionTime = 68.14 s  ClockTime = 68 s

Time = 0.05

Courant Number mean: 0.114288 max: 0.981135
smoothSolver:  Solving for Ux, Initial residual = 0.000921754, Final residual = 9.55933e-06, No Iterations 63
smoothSolver:  Solving for Uy, Initial residual = 0.00349039, Final residual = 9.61447e-06, No Iterations 86
DICPCG:  Solving for p, Initial residual = 0.231854, Final residual = 0.011521, No Iterations 247
time step continuity errors : sum local = 1.07082e-06, global = -5.5308e-20, cumulative = -6.34827e-19
DICPCG:  Solving for p, Initial residual = 0.215894, Final residual = 9.11098e-07, No Iterations 382
time step continuity errors : sum local = 8.77792e-11, global = 8.45683e-20, cumulative = -5.50258e-19
ExecutionTime = 69.04 s  ClockTime = 69 s

Time = 0.050625

Courant Number mean: 0.1144 max: 0.981355
smoothSolver:  Solving for Ux, Initial residual = 0.00126211, Final residual = 9.65394e-06, No Iterations 74
smoothSolver:  Solving for Uy, Initial residual = 0.00262133, Final residual = 9.86119e-06, No Iterations 79
DICPCG:  Solving for p, Initial residual = 0.204439, Final residual = 0.00972341, No Iterations 265
time step continuity errors : sum local = 8.71078e-07, global = -1.06364e-20, cumulative = -5.60895e-19
DICPCG:  Solving for p, Initial residual = 0.190637, Final residual = 8.88174e-07, No Iterations 375
time step continuity errors : sum local = 8.22003e-11, global = -3.59967e-20, cumulative = -5.96892e-19
ExecutionTime = 69.83 s  ClockTime = 70 s

Time = 0.05125

Courant Number mean: 0.114496 max: 0.980967
smoothSolver:  Solving for Ux, Initial residual = 0.000787718, Final residual = 9.85459e-06, No Iterations 62
smoothSolver:  Solving for Uy, Initial residual = 0.00249399, Final residual = 9.72563e-06, No Iterations 81
DICPCG:  Solving for p, Initial residual = 0.182654, Final residual = 0.00813333, No Iterations 254
time step continuity errors : sum local = 7.10916e-07, global = 1.39354e-20, cumulative = -5.82956e-19
DICPCG:  Solving for p, Initial residual = 0.171856, Final residual = 9.71247e-07, No Iterations 377
time step continuity errors : sum local = 8.6925e-11, global = 8.63118e-21, cumulative = -5.74325e-19
ExecutionTime = 70.61 s  ClockTime = 71 s

Time = 0.051875

Courant Number mean: 0.114606 max: 0.981387
smoothSolver:  Solving for Ux, Initial residual = 0.00094726, Final residual = 9.97509e-06, No Iterations 69
smoothSolver:  Solving for Uy, Initial residual = 0.00188022, Final residual = 9.42065e-06, No Iterations 74
DICPCG:  Solving for p, Initial residual = 0.151457, Final residual = 0.00684977, No Iterations 266
time step continuity errors : sum local = 5.75383e-07, global = -2.26142e-20, cumulative = -5.96939e-19
DICPCG:  Solving for p, Initial residual = 0.141674, Final residual = 9.30308e-07, No Iterations 375
time step continuity errors : sum local = 7.99308e-11, global = -4.43962e-20, cumulative = -6.41335e-19
ExecutionTime = 71.41 s  ClockTime = 71 s

Time = 0.0525

Courant Number mean: 0.1147 max: 0.981142
smoothSolver:  Solving for Ux, Initial residual = 0.00048884, Final residual = 9.59699e-06, No Iterations 52
smoothSolver:  Solving for Uy, Initial residual = 0.00207652, Final residual = 9.5102e-06, No Iterations 79
DICPCG:  Solving for p, Initial residual = 0.131421, Final residual = 0.00624306, No Iterations 261
time step continuity errors : sum local = 5.14026e-07, global = -4.68048e-20, cumulative = -6.8814e-19
DICPCG:  Solving for p, Initial residual = 0.124085, Final residual = 9.47621e-07, No Iterations 376
time step continuity errors : sum local = 7.94662e-11, global = -1.21298e-19, cumulative = -8.09439e-19
ExecutionTime = 72.19 s  ClockTime = 72 s

Time = 0.053125

Courant Number mean: 0.114804 max: 0.981512
smoothSolver:  Solving for Ux, Initial residual = 0.000613185, Final residual = 9.6173e-06, No Iterations 61
smoothSolver:  Solving for Uy, Initial residual = 0.00146644, Final residual = 9.94889e-06, No Iterations 70
DICPCG:  Solving for p, Initial residual = 0.111275, Final residual = 0.00535031, No Iterations 267
time step continuity errors : sum local = 4.30834e-07, global = 2.02783e-20, cumulative = -7.8916e-19
DICPCG:  Solving for p, Initial residual = 0.105436, Final residual = 9.65263e-07, No Iterations 373
time step continuity errors : sum local = 7.86284e-11, global = -1.93568e-20, cumulative = -8.08517e-19
ExecutionTime = 72.95 s  ClockTime = 73 s

Time = 0.05375

Courant Number mean: 0.114896 max: 0.981301
smoothSolver:  Solving for Ux, Initial residual = 0.000441258, Final residual = 9.57846e-06, No Iterations 54
smoothSolver:  Solving for Uy, Initial residual = 0.0016577, Final residual = 9.89769e-06, No Iterations 76
DICPCG:  Solving for p, Initial residual = 0.101728, Final residual = 0.0048716, No Iterations 96
time step continuity errors : sum local = 4.25497e-07, global = -1.06087e-19, cumulative = -9.14604e-19
DICPCG:  Solving for p, Initial residual = 0.0973673, Final residual = 9.42322e-07, No Iterations 373
time step continuity errors : sum local = 7.51079e-11, global = -5.40459e-20, cumulative = -9.6865e-19
ExecutionTime = 73.55 s  ClockTime = 74 s

Time = 0.054375

Courant Number mean: 0.114993 max: 0.981458
smoothSolver:  Solving for Ux, Initial residual = 0.000933334, Final residual = 9.7052e-06, No Iterations 69
smoothSolver:  Solving for Uy, Initial residual = 0.00448453, Final residual = 9.75967e-06, No Iterations 95
DICPCG:  Solving for p, Initial residual = 0.117182, Final residual = 0.00534198, No Iterations 270
time step continuity errors : sum local = 4.3503e-07, global = 2.45673e-20, cumulative = -9.44083e-19
DICPCG:  Solving for p, Initial residual = 0.0979393, Final residual = 9.8429e-07, No Iterations 374
time step continuity errors : sum local = 9.23212e-11, global = -3.29661e-20, cumulative = -9.77049e-19
ExecutionTime = 74.35 s  ClockTime = 74 s

Time = 0.055

Courant Number mean: 0.115108 max: 0.981448
smoothSolver:  Solving for Ux, Initial residual = 0.000760725, Final residual = 9.39018e-06, No Iterations 62
smoothSolver:  Solving for Uy, Initial residual = 0.00267097, Final residual = 9.71059e-06, No Iterations 78
DICPCG:  Solving for p, Initial residual = 0.111086, Final residual = 0.00546963, No Iterations 257
time step continuity errors : sum local = 4.4312e-07, global = -1.32316e-20, cumulative = -9.9028e-19
DICPCG:  Solving for p, Initial residual = 0.100702, Final residual = 9.86614e-07, No Iterations 377
time step continuity errors : sum local = 8.51473e-11, global = 8.44854e-20, cumulative = -9.05795e-19
ExecutionTime = 75.15 s  ClockTime = 75 s

Time = 0.055625

Courant Number mean: 0.11518 max: 0.981447
smoothSolver:  Solving for Ux, Initial residual = 0.000718364, Final residual = 9.67595e-06, No Iterations 63
smoothSolver:  Solving for Uy, Initial residual = 0.00181608, Final residual = 9.88953e-06, No Iterations 75
DICPCG:  Solving for p, Initial residual = 0.110548, Final residual = 0.0053902, No Iterations 264
time step continuity errors : sum local = 4.35026e-07, global = 3.82281e-20, cumulative = -8.67567e-19
DICPCG:  Solving for p, Initial residual = 0.102888, Final residual = 9.89523e-07, No Iterations 373
time step continuity errors : sum local = 8.36823e-11, global = 5.15948e-20, cumulative = -8.15972e-19
ExecutionTime = 75.93 s  ClockTime = 76 s

Time = 0.05625

Courant Number mean: 0.115262 max: 0.981411
smoothSolver:  Solving for Ux, Initial residual = 0.000595562, Final residual = 9.78059e-06, No Iterations 60
smoothSolver:  Solving for Uy, Initial residual = 0.00160849, Final residual = 9.87534e-06, No Iterations 75
DICPCG:  Solving for p, Initial residual = 0.101194, Final residual = 0.00484696, No Iterations 268
time step continuity errors : sum local = 3.88058e-07, global = -4.66468e-20, cumulative = -8.62619e-19
DICPCG:  Solving for p, Initial residual = 0.0949693, Final residual = 9.79871e-07, No Iterations 375
time step continuity errors : sum local = 8.08692e-11, global = 5.13596e-20, cumulative = -8.11259e-19
ExecutionTime = 76.72 s  ClockTime = 77 s

Time = 0.056875

Courant Number mean: 0.115343 max: 0.981379
smoothSolver:  Solving for Ux, Initial residual = 0.000473132, Final residual = 9.56741e-06, No Iterations 56
smoothSolver:  Solving for Uy, Initial residual = 0.00133946, Final residual = 9.88724e-06, No Iterations 70
DICPCG:  Solving for p, Initial residual = 0.0875929, Final residual = 0.004372, No Iterations 249
time step continuity errors : sum local = 3.44294e-07, global = -4.56645e-20, cumulative = -8.56924e-19
DICPCG:  Solving for p, Initial residual = 0.0820479, Final residual = 9.12181e-07, No Iterations 372
time step continuity errors : sum local = 7.36445e-11, global = 8.24421e-20, cumulative = -7.74482e-19
ExecutionTime = 77.46 s  ClockTime = 78 s

Time = 0.0575

Courant Number mean: 0.115421 max: 0.981473
smoothSolver:  Solving for Ux, Initial residual = 0.000392138, Final residual = 9.91236e-06, No Iterations 52
smoothSolver:  Solving for Uy, Initial residual = 0.00151209, Final residual = 9.98392e-06, No Iterations 75
DICPCG:  Solving for p, Initial residual = 0.0870754, Final residual = 0.00422474, No Iterations 261
time step continuity errors : sum local = 3.32673e-07, global = -1.51443e-20, cumulative = -7.89626e-19
DICPCG:  Solving for p, Initial residual = 0.082978, Final residual = 9.46194e-07, No Iterations 365
time step continuity errors : sum local = 7.55832e-11, global = -2.01177e-20, cumulative = -8.09744e-19
ExecutionTime = 78.21 s  ClockTime = 78 s

Time = 0.058125

Courant Number mean: 0.115498 max: 0.981476
smoothSolver:  Solving for Ux, Initial residual = 0.000444253, Final residual = 9.51095e-06, No Iterations 57
smoothSolver:  Solving for Uy, Initial residual = 0.00132509, Final residual = 9.78753e-06, No Iterations 72
DICPCG:  Solving for p, Initial residual = 0.0761814, Final residual = 0.00378648, No Iterations 249
time step continuity errors : sum local = 2.94702e-07, global = -2.58695e-20, cumulative = -8.35613e-19
DICPCG:  Solving for p, Initial residual = 0.0719336, Final residual = 9.13508e-07, No Iterations 372
time step continuity errors : sum local = 7.22286e-11, global = -3.96066e-20, cumulative = -8.7522e-19
ExecutionTime = 78.96 s  ClockTime = 79 s

Time = 0.05875

Courant Number mean: 0.115572 max: 0.98149
smoothSolver:  Solving for Ux, Initial residual = 0.000381618, Final residual = 9.47435e-06, No Iterations 54
smoothSolver:  Solving for Uy, Initial residual = 0.00133868, Final residual = 9.40724e-06, No Iterations 75
DICPCG:  Solving for p, Initial residual = 0.0743313, Final residual = 0.00363807, No Iterations 266
time step continuity errors : sum local = 2.82054e-07, global = -1.08254e-20, cumulative = -8.86045e-19
DICPCG:  Solving for p, Initial residual = 0.0710152, Final residual = 9.09478e-07, No Iterations 362
time step continuity errors : sum local = 7.1167e-11, global = 8.13721e-20, cumulative = -8.04673e-19
ExecutionTime = 79.72 s  ClockTime = 80 s

Time = 0.059375

Courant Number mean: 0.115644 max: 0.981447
smoothSolver:  Solving for Ux, Initial residual = 0.000318095, Final residual = 9.42839e-06, No Iterations 51
smoothSolver:  Solving for Uy, Initial residual = 0.00110188, Final residual = 9.54559e-06, No Iterations 68
DICPCG:  Solving for p, Initial residual = 0.0669214, Final residual = 0.00313538, No Iterations 243
time step continuity errors : sum local = 2.41442e-07, global = -1.54798e-20, cumulative = -8.20153e-19
DICPCG:  Solving for p, Initial residual = 0.0638353, Final residual = 8.98506e-07, No Iterations 371
time step continuity errors : sum local = 6.96766e-11, global = 3.29072e-20, cumulative = -7.87245e-19
ExecutionTime = 80.45 s  ClockTime = 81 s

Time = 0.06

Courant Number mean: 0.115715 max: 0.981532
smoothSolver:  Solving for Ux, Initial residual = 0.000337209, Final residual = 9.84949e-06, No Iterations 53
smoothSolver:  Solving for Uy, Initial residual = 0.000901067, Final residual = 9.47164e-06, No Iterations 67
DICPCG:  Solving for p, Initial residual = 0.0574974, Final residual = 0.00282924, No Iterations 253
time step continuity errors : sum local = 2.15387e-07, global = 7.34679e-20, cumulative = -7.13777e-19
DICPCG:  Solving for p, Initial residual = 0.0545961, Final residual = 9.89637e-07, No Iterations 354
time step continuity errors : sum local = 7.62068e-11, global = 4.39656e-21, cumulative = -7.09381e-19
ExecutionTime = 81.2 s  ClockTime = 81 s

Time = 0.060625

Courant Number mean: 0.115786 max: 0.981544
smoothSolver:  Solving for Ux, Initial residual = 0.000293382, Final residual = 9.44122e-06, No Iterations 51
smoothSolver:  Solving for Uy, Initial residual = 0.00084909, Final residual = 9.95655e-06, No Iterations 67
DICPCG:  Solving for p, Initial residual = 0.0494865, Final residual = 0.00239317, No Iterations 253
time step continuity errors : sum local = 1.80739e-07, global = -2.35909e-20, cumulative = -7.32972e-19
DICPCG:  Solving for p, Initial residual = 0.0466037, Final residual = 9.26986e-07, No Iterations 360
time step continuity errors : sum local = 7.03834e-11, global = 3.43687e-20, cumulative = -6.98603e-19
ExecutionTime = 81.93 s  ClockTime = 82 s

Time = 0.06125

Courant Number mean: 0.115853 max: 0.981586
smoothSolver:  Solving for Ux, Initial residual = 0.000288744, Final residual = 9.81127e-06, No Iterations 51
smoothSolver:  Solving for Uy, Initial residual = 0.000629854, Final residual = 9.71231e-06, No Iterations 61
DICPCG:  Solving for p, Initial residual = 0.043158, Final residual = 0.00210092, No Iterations 260
time step continuity errors : sum local = 1.57479e-07, global = 3.89692e-20, cumulative = -6.59634e-19
DICPCG:  Solving for p, Initial residual = 0.0412013, Final residual = 9.12128e-07, No Iterations 360
time step continuity errors : sum local = 6.87151e-11, global = -3.83521e-20, cumulative = -6.97986e-19
ExecutionTime = 82.65 s  ClockTime = 83 s

Time = 0.061875

Courant Number mean: 0.115918 max: 0.981532
smoothSolver:  Solving for Ux, Initial residual = 0.00020749, Final residual = 9.59254e-06, No Iterations 46
smoothSolver:  Solving for Uy, Initial residual = 0.000754361, Final residual = 9.79235e-06, No Iterations 66
DICPCG:  Solving for p, Initial residual = 0.0343824, Final residual = 0.00151315, No Iterations 270
time step continuity errors : sum local = 1.12432e-07, global = 1.92071e-20, cumulative = -6.78779e-19
DICPCG:  Solving for p, Initial residual = 0.0328692, Final residual = 9.89394e-07, No Iterations 354
time step continuity errors : sum local = 7.38406e-11, global = 5.65376e-20, cumulative = -6.22241e-19
ExecutionTime = 83.37 s  ClockTime = 83 s

Time = 0.0625

Courant Number mean: 0.115981 max: 0.981592
smoothSolver:  Solving for Ux, Initial residual = 0.000203356, Final residual = 9.90284e-06, No Iterations 45
smoothSolver:  Solving for Uy, Initial residual = 0.000611281, Final residual = 9.90199e-06, No Iterations 61
DICPCG:  Solving for p, Initial residual = 0.0279563, Final residual = 0.0013741, No Iterations 240
time step continuity errors : sum local = 1.01547e-07, global = 2.03961e-20, cumulative = -6.01845e-19
DICPCG:  Solving for p, Initial residual = 0.0266468, Final residual = 9.91673e-07, No Iterations 352
time step continuity errors : sum local = 7.35425e-11, global = 2.64136e-20, cumulative = -5.75432e-19
ExecutionTime = 84.22 s  ClockTime = 84 s

Time = 0.063125

Courant Number mean: 0.116042 max: 0.981559
smoothSolver:  Solving for Ux, Initial residual = 0.000197863, Final residual = 9.52164e-06, No Iterations 46
smoothSolver:  Solving for Uy, Initial residual = 0.000524645, Final residual = 9.88779e-06, No Iterations 60
DICPCG:  Solving for p, Initial residual = 0.0251578, Final residual = 0.0012133, No Iterations 73
time step continuity errors : sum local = 1.01677e-07, global = -4.07169e-20, cumulative = -6.16149e-19
DICPCG:  Solving for p, Initial residual = 0.0242343, Final residual = 9.68103e-07, No Iterations 358
time step continuity errors : sum local = 7.1388e-11, global = -2.76395e-20, cumulative = -6.43788e-19
ExecutionTime = 84.77 s  ClockTime = 85 s

Time = 0.06375

Courant Number mean: 0.116101 max: 0.981568
smoothSolver:  Solving for Ux, Initial residual = 0.000332536, Final residual = 9.58057e-06, No Iterations 54
smoothSolver:  Solving for Uy, Initial residual = 0.00127823, Final residual = 9.89086e-06, No Iterations 75
DICPCG:  Solving for p, Initial residual = 0.031819, Final residual = 0.00149448, No Iterations 274
time step continuity errors : sum local = 1.1126e-07, global = -4.76771e-20, cumulative = -6.91465e-19
DICPCG:  Solving for p, Initial residual = 0.0293382, Final residual = 9.42414e-07, No Iterations 374
time step continuity errors : sum local = 7.35078e-11, global = -2.31499e-20, cumulative = -7.14615e-19
ExecutionTime = 85.57 s  ClockTime = 86 s

Time = 0.064375

Courant Number mean: 0.116165 max: 0.981576
smoothSolver:  Solving for Ux, Initial residual = 0.000281568, Final residual = 9.50178e-06, No Iterations 48
smoothSolver:  Solving for Uy, Initial residual = 0.000921191, Final residual = 9.66619e-06, No Iterations 64
DICPCG:  Solving for p, Initial residual = 0.0325374, Final residual = 0.00155326, No Iterations 272
time step continuity errors : sum local = 1.15585e-07, global = 4.34338e-20, cumulative = -6.71181e-19
DICPCG:  Solving for p, Initial residual = 0.0305441, Final residual = 9.80612e-07, No Iterations 367
time step continuity errors : sum local = 7.44067e-11, global = 7.0488e-20, cumulative = -6.00693e-19
ExecutionTime = 86.32 s  ClockTime = 86 s

Time = 0.065

Courant Number mean: 0.116218 max: 0.981591
smoothSolver:  Solving for Ux, Initial residual = 0.00027006, Final residual = 9.88725e-06, No Iterations 49
smoothSolver:  Solving for Uy, Initial residual = 0.000609113, Final residual = 9.8541e-06, No Iterations 59
DICPCG:  Solving for p, Initial residual = 0.030962, Final residual = 0.00151322, No Iterations 261
time step continuity errors : sum local = 1.12402e-07, global = -1.88958e-21, cumulative = -6.02583e-19
DICPCG:  Solving for p, Initial residual = 0.0294137, Final residual = 9.9114e-07, No Iterations 360
time step continuity errors : sum local = 7.45819e-11, global = -1.08446e-19, cumulative = -7.11029e-19
ExecutionTime = 87.03 s  ClockTime = 87 s

Time = 0.065625

Courant Number mean: 0.116272 max: 0.98159
smoothSolver:  Solving for Ux, Initial residual = 0.000182003, Final residual = 9.8077e-06, No Iterations 42
smoothSolver:  Solving for Uy, Initial residual = 0.000714172, Final residual = 9.49217e-06, No Iterations 65
DICPCG:  Solving for p, Initial residual = 0.0309471, Final residual = 0.00148072, No Iterations 267
time step continuity errors : sum local = 1.10047e-07, global = 1.00081e-20, cumulative = -7.01021e-19
DICPCG:  Solving for p, Initial residual = 0.0299316, Final residual = 9.03907e-07, No Iterations 361
time step continuity errors : sum local = 6.75206e-11, global = -2.30367e-20, cumulative = -7.24057e-19
ExecutionTime = 87.75 s  ClockTime = 88 s

Time = 0.06625

Courant Number mean: 0.116325 max: 0.981629
smoothSolver:  Solving for Ux, Initial residual = 0.000222177, Final residual = 9.70382e-06, No Iterations 47
smoothSolver:  Solving for Uy, Initial residual = 0.000552788, Final residual = 9.62801e-06, No Iterations 59
DICPCG:  Solving for p, Initial residual = 0.027058, Final residual = 0.00133819, No Iterations 243
time step continuity errors : sum local = 9.90201e-08, global = -2.29583e-20, cumulative = -7.47016e-19
DICPCG:  Solving for p, Initial residual = 0.0256532, Final residual = 9.20265e-07, No Iterations 345
time step continuity errors : sum local = 6.84923e-11, global = -1.51687e-20, cumulative = -7.62184e-19
ExecutionTime = 88.45 s  ClockTime = 89 s

Time = 0.066875

Courant Number mean: 0.116377 max: 0.98159
smoothSolver:  Solving for Ux, Initial residual = 0.000173651, Final residual = 9.9001e-06, No Iterations 42
smoothSolver:  Solving for Uy, Initial residual = 0.000528678, Final residual = 9.99082e-06, No Iterations 59
DICPCG:  Solving for p, Initial residual = 0.0260366, Final residual = 0.0012294, No Iterations 247
time step continuity errors : sum local = 9.07255e-08, global = -2.70556e-20, cumulative = -7.8924e-19
DICPCG:  Solving for p, Initial residual = 0.0250322, Final residual = 9.83977e-07, No Iterations 360
time step continuity errors : sum local = 7.2852e-11, global = 4.06773e-21, cumulative = -7.85172e-19
ExecutionTime = 89.15 s  ClockTime = 89 s

Time = 0.0675

Courant Number mean: 0.116426 max: 0.981621
smoothSolver:  Solving for Ux, Initial residual = 0.000193291, Final residual = 9.50117e-06, No Iterations 46
smoothSolver:  Solving for Uy, Initial residual = 0.000447442, Final residual = 9.99097e-06, No Iterations 56
DICPCG:  Solving for p, Initial residual = 0.0226692, Final residual = 0.00105876, No Iterations 258
time step continuity errors : sum local = 7.80335e-08, global = 2.45275e-20, cumulative = -7.60645e-19
DICPCG:  Solving for p, Initial residual = 0.0217551, Final residual = 9.13791e-07, No Iterations 355
time step continuity errors : sum local = 6.75189e-11, global = -5.47247e-22, cumulative = -7.61192e-19
ExecutionTime = 89.88 s  ClockTime = 90 s

Time = 0.068125

Courant Number mean: 0.116475 max: 0.981619
smoothSolver:  Solving for Ux, Initial residual = 0.000145978, Final residual = 9.92636e-06, No Iterations 40
smoothSolver:  Solving for Uy, Initial residual = 0.00049054, Final residual = 9.6775e-06, No Iterations 59
[...]
DICPCG:  Solving for p, Initial residual = 1.53151e-06, Final residual = 8.54092e-07, No Iterations 1
time step continuity errors : sum local = 6.19328e-11, global = 1.2883e-20, cumulative = 6.39682e-19
ExecutionTime = 263.01 s  ClockTime = 264 s

Time = 0.48375

Courant Number mean: 0.118288 max: 0.981776
smoothSolver:  Solving for Ux, Initial residual = 3.02144e-06, Final residual = 3.02144e-06, No Iterations 0
smoothSolver:  Solving for Uy, Initial residual = 7.83385e-06, Final residual = 7.83385e-06, No Iterations 0
DICPCG:  Solving for p, Initial residual = 1.19005e-06, Final residual = 7.91599e-07, No Iterations 1
time step continuity errors : sum local = 5.7496e-11, global = 2.70964e-20, cumulative = 6.66779e-19
DICPCG:  Solving for p, Initial residual = 1.05234e-06, Final residual = 9.24496e-07, No Iterations 1
time step continuity errors : sum local = 6.70777e-11, global = 4.23691e-20, cumulative = 7.09148e-19
ExecutionTime = 263.03 s  ClockTime = 264 s

Time = 0.484375

Courant Number mean: 0.118288 max: 0.981776
smoothSolver:  Solving for Ux, Initial residual = 3.01932e-06, Final residual = 3.01932e-06, No Iterations 0
smoothSolver:  Solving for Uy, Initial residual = 7.82437e-06, Final residual = 7.82437e-06, No Iterations 0
DICPCG:  Solving for p, Initial residual = 1.15786e-06, Final residual = 9.70174e-07, No Iterations 1
time step continuity errors : sum local = 7.03839e-11, global = -6.82844e-21, cumulative = 7.0232e-19
DICPCG:  Solving for p, Initial residual = 1.20122e-06, Final residual = 9.81339e-07, No Iterations 71
time step continuity errors : sum local = 7.21937e-11, global = 6.67583e-21, cumulative = 7.08995e-19
ExecutionTime = 263.12 s  ClockTime = 264 s

Time = 0.485

Courant Number mean: 0.118288 max: 0.981776
smoothSolver:  Solving for Ux, Initial residual = 3.02152e-06, Final residual = 3.02152e-06, No Iterations 0
smoothSolver:  Solving for Uy, Initial residual = 7.82571e-06, Final residual = 7.82571e-06, No Iterations 0
DICPCG:  Solving for p, Initial residual = 1.82373e-06, Final residual = 9.38942e-07, No Iterations 80
time step continuity errors : sum local = 6.94208e-11, global = -4.02795e-20, cumulative = 6.68716e-19
DICPCG:  Solving for p, Initial residual = 1.55748e-06, Final residual = 9.45816e-07, No Iterations 20
time step continuity errors : sum local = 6.95287e-11, global = 1.09448e-19, cumulative = 7.78164e-19
ExecutionTime = 263.23 s  ClockTime = 264 s

Time = 0.485625

Courant Number mean: 0.118288 max: 0.981776
smoothSolver:  Solving for Ux, Initial residual = 3.02168e-06, Final residual = 3.02168e-06, No Iterations 0
smoothSolver:  Solving for Uy, Initial residual = 7.7952e-06, Final residual = 7.7952e-06, No Iterations 0
DICPCG:  Solving for p, Initial residual = 1.60006e-06, Final residual = 9.04379e-07, No Iterations 11
time step continuity errors : sum local = 6.63799e-11, global = 7.24619e-20, cumulative = 8.50626e-19
DICPCG:  Solving for p, Initial residual = 1.52019e-06, Final residual = 8.79077e-07, No Iterations 6
time step continuity errors : sum local = 6.43975e-11, global = 9.4121e-21, cumulative = 8.60038e-19
ExecutionTime = 263.27 s  ClockTime = 264 s

Time = 0.48625

Courant Number mean: 0.118288 max: 0.981777
smoothSolver:  Solving for Ux, Initial residual = 3.01337e-06, Final residual = 3.01337e-06, No Iterations 0
smoothSolver:  Solving for Uy, Initial residual = 7.80289e-06, Final residual = 7.80289e-06, No Iterations 0
DICPCG:  Solving for p, Initial residual = 1.61011e-06, Final residual = 9.24315e-07, No Iterations 4
time step continuity errors : sum local = 6.75301e-11, global = -7.34002e-20, cumulative = 7.86638e-19
DICPCG:  Solving for p, Initial residual = 1.70119e-06, Final residual = 9.21332e-07, No Iterations 3
time step continuity errors : sum local = 6.72958e-11, global = -9.67114e-21, cumulative = 7.76966e-19
ExecutionTime = 263.3 s  ClockTime = 264 s

Time = 0.486875

Courant Number mean: 0.118288 max: 0.981777
smoothSolver:  Solving for Ux, Initial residual = 3.01099e-06, Final residual = 3.01099e-06, No Iterations 0
smoothSolver:  Solving for Uy, Initial residual = 7.78882e-06, Final residual = 7.78882e-06, No Iterations 0
DICPCG:  Solving for p, Initial residual = 1.69293e-06, Final residual = 7.67773e-07, No Iterations 2
time step continuity errors : sum local = 5.62155e-11, global = -1.11267e-20, cumulative = 7.6584e-19
DICPCG:  Solving for p, Initial residual = 1.51428e-06, Final residual = 8.71348e-07, No Iterations 1
time step continuity errors : sum local = 6.3684e-11, global = 2.18111e-20, cumulative = 7.87651e-19
ExecutionTime = 263.33 s  ClockTime = 265 s

Time = 0.4875

Courant Number mean: 0.118288 max: 0.981777
smoothSolver:  Solving for Ux, Initial residual = 3.00801e-06, Final residual = 3.00801e-06, No Iterations 0
smoothSolver:  Solving for Uy, Initial residual = 7.78053e-06, Final residual = 7.78053e-06, No Iterations 0
DICPCG:  Solving for p, Initial residual = 1.31844e-06, Final residual = 8.43135e-07, No Iterations 1
time step continuity errors : sum local = 6.16318e-11, global = -8.03241e-21, cumulative = 7.79618e-19
DICPCG:  Solving for p, Initial residual = 1.1382e-06, Final residual = 8.31768e-07, No Iterations 1
time step continuity errors : sum local = 6.08098e-11, global = -6.60933e-22, cumulative = 7.78958e-19
ExecutionTime = 263.49 s  ClockTime = 265 s

Time = 0.488125

Courant Number mean: 0.118288 max: 0.981777
smoothSolver:  Solving for Ux, Initial residual = 3.00565e-06, Final residual = 3.00565e-06, No Iterations 0
smoothSolver:  Solving for Uy, Initial residual = 7.77269e-06, Final residual = 7.77269e-06, No Iterations 0
DICPCG:  Solving for p, Initial residual = 1.01024e-06, Final residual = 8.20384e-07, No Iterations 1
time step continuity errors : sum local = 5.99793e-11, global = 2.58991e-20, cumulative = 8.04857e-19
DICPCG:  Solving for p, Initial residual = 9.91533e-07, Final residual = 9.91533e-07, No Iterations 0
time step continuity errors : sum local = 7.23168e-11, global = -7.74206e-20, cumulative = 7.27436e-19
ExecutionTime = 263.51 s  ClockTime = 265 s

Time = 0.48875

Courant Number mean: 0.118288 max: 0.981777
smoothSolver:  Solving for Ux, Initial residual = 3.00392e-06, Final residual = 3.00392e-06, No Iterations 0
smoothSolver:  Solving for Uy, Initial residual = 7.76466e-06, Final residual = 7.76466e-06, No Iterations 0
DICPCG:  Solving for p, Initial residual = 1.17152e-06, Final residual = 9.5128e-07, No Iterations 1
time step continuity errors : sum local = 6.94036e-11, global = 3.11332e-20, cumulative = 7.58569e-19
DICPCG:  Solving for p, Initial residual = 1.19006e-06, Final residual = 9.85774e-07, No Iterations 1
time step continuity errors : sum local = 7.188e-11, global = -2.96547e-20, cumulative = 7.28915e-19
ExecutionTime = 263.53 s  ClockTime = 265 s

Time = 0.489375

Courant Number mean: 0.118288 max: 0.981777
smoothSolver:  Solving for Ux, Initial residual = 3.00184e-06, Final residual = 3.00184e-06, No Iterations 0
smoothSolver:  Solving for Uy, Initial residual = 7.75724e-06, Final residual = 7.75724e-06, No Iterations 0
DICPCG:  Solving for p, Initial residual = 1.12568e-06, Final residual = 9.0348e-07, No Iterations 86
time step continuity errors : sum local = 6.79592e-11, global = 3.04016e-20, cumulative = 7.59316e-19
DICPCG:  Solving for p, Initial residual = 1.75864e-06, Final residual = 9.88475e-07, No Iterations 87
time step continuity errors : sum local = 7.30615e-11, global = 2.7342e-20, cumulative = 7.86658e-19
ExecutionTime = 263.71 s  ClockTime = 265 s

Time = 0.49

Courant Number mean: 0.118288 max: 0.981777
smoothSolver:  Solving for Ux, Initial residual = 3.01326e-06, Final residual = 3.01326e-06, No Iterations 0
smoothSolver:  Solving for Uy, Initial residual = 7.75929e-06, Final residual = 7.75929e-06, No Iterations 0
DICPCG:  Solving for p, Initial residual = 1.64641e-06, Final residual = 9.73528e-07, No Iterations 10
time step continuity errors : sum local = 7.1546e-11, global = -3.66971e-20, cumulative = 7.49961e-19
DICPCG:  Solving for p, Initial residual = 1.62753e-06, Final residual = 9.86863e-07, No Iterations 24
time step continuity errors : sum local = 7.17453e-11, global = 8.28447e-20, cumulative = 8.32806e-19
ExecutionTime = 263.77 s  ClockTime = 265 s

Time = 0.490625

Courant Number mean: 0.118288 max: 0.981777
smoothSolver:  Solving for Ux, Initial residual = 2.96968e-06, Final residual = 2.96968e-06, No Iterations 0
smoothSolver:  Solving for Uy, Initial residual = 7.83005e-06, Final residual = 7.83005e-06, No Iterations 0
DICPCG:  Solving for p, Initial residual = 1.65306e-06, Final residual = 9.30408e-07, No Iterations 14
time step continuity errors : sum local = 6.73243e-11, global = 6.01287e-21, cumulative = 8.38818e-19
DICPCG:  Solving for p, Initial residual = 1.60429e-06, Final residual = 9.88955e-07, No Iterations 7
time step continuity errors : sum local = 7.12604e-11, global = -1.0075e-19, cumulative = 7.38069e-19
ExecutionTime = 263.81 s  ClockTime = 265 s

Time = 0.49125

Courant Number mean: 0.118288 max: 0.981777
smoothSolver:  Solving for Ux, Initial residual = 2.98301e-06, Final residual = 2.98301e-06, No Iterations 0
smoothSolver:  Solving for Uy, Initial residual = 7.76925e-06, Final residual = 7.76925e-06, No Iterations 0
DICPCG:  Solving for p, Initial residual = 1.6416e-06, Final residual = 9.13178e-07, No Iterations 4
time step continuity errors : sum local = 6.57472e-11, global = -4.56544e-20, cumulative = 6.92414e-19
DICPCG:  Solving for p, Initial residual = 1.75457e-06, Final residual = 8.57275e-07, No Iterations 2
time step continuity errors : sum local = 6.18045e-11, global = 6.26862e-20, cumulative = 7.55101e-19
ExecutionTime = 263.83 s  ClockTime = 265 s

Time = 0.491875

Courant Number mean: 0.118288 max: 0.981777
smoothSolver:  Solving for Ux, Initial residual = 2.9807e-06, Final residual = 2.9807e-06, No Iterations 0
smoothSolver:  Solving for Uy, Initial residual = 7.75925e-06, Final residual = 7.75925e-06, No Iterations 0
DICPCG:  Solving for p, Initial residual = 1.59026e-06, Final residual = 8.48621e-07, No Iterations 2
time step continuity errors : sum local = 6.12169e-11, global = -1.17401e-19, cumulative = 6.37699e-19
DICPCG:  Solving for p, Initial residual = 1.42836e-06, Final residual = 8.44072e-07, No Iterations 1
time step continuity errors : sum local = 6.09894e-11, global = -5.1233e-20, cumulative = 5.86466e-19
ExecutionTime = 263.87 s  ClockTime = 265 s

Time = 0.4925

Courant Number mean: 0.118288 max: 0.981777
smoothSolver:  Solving for Ux, Initial residual = 2.9785e-06, Final residual = 2.9785e-06, No Iterations 0
smoothSolver:  Solving for Uy, Initial residual = 7.74763e-06, Final residual = 7.74763e-06, No Iterations 0
DICPCG:  Solving for p, Initial residual = 1.21686e-06, Final residual = 8.56557e-07, No Iterations 1
time step continuity errors : sum local = 6.18875e-11, global = -2.06996e-20, cumulative = 5.65767e-19
DICPCG:  Solving for p, Initial residual = 1.08741e-06, Final residual = 9.46814e-07, No Iterations 1
time step continuity errors : sum local = 6.84128e-11, global = -3.3395e-20, cumulative = 5.32372e-19
ExecutionTime = 263.89 s  ClockTime = 265 s

Time = 0.493125

Courant Number mean: 0.118288 max: 0.981777
smoothSolver:  Solving for Ux, Initial residual = 2.97691e-06, Final residual = 2.97691e-06, No Iterations 0
smoothSolver:  Solving for Uy, Initial residual = 7.73822e-06, Final residual = 7.73822e-06, No Iterations 0
DICPCG:  Solving for p, Initial residual = 1.18027e-06, Final residual = 9.79796e-07, No Iterations 75
time step continuity errors : sum local = 7.2461e-11, global = -3.04762e-20, cumulative = 5.01896e-19
DICPCG:  Solving for p, Initial residual = 1.72394e-06, Final residual = 8.92527e-07, No Iterations 41
time step continuity errors : sum local = 6.66051e-11, global = -3.62294e-20, cumulative = 4.65666e-19
ExecutionTime = 264.02 s  ClockTime = 265 s

Time = 0.49375

Courant Number mean: 0.118288 max: 0.981777
smoothSolver:  Solving for Ux, Initial residual = 3.00594e-06, Final residual = 3.00594e-06, No Iterations 0
smoothSolver:  Solving for Uy, Initial residual = 7.66043e-06, Final residual = 7.66043e-06, No Iterations 0
DICPCG:  Solving for p, Initial residual = 1.54396e-06, Final residual = 9.88498e-07, No Iterations 69
time step continuity errors : sum local = 7.22175e-11, global = -3.54387e-20, cumulative = 4.30228e-19
DICPCG:  Solving for p, Initial residual = 1.6038e-06, Final residual = 9.92719e-07, No Iterations 26
time step continuity errors : sum local = 7.18776e-11, global = -4.13682e-21, cumulative = 4.26091e-19
ExecutionTime = 264.13 s  ClockTime = 265 s

Time = 0.494375

Courant Number mean: 0.118288 max: 0.981777
smoothSolver:  Solving for Ux, Initial residual = 2.97872e-06, Final residual = 2.97872e-06, No Iterations 0
smoothSolver:  Solving for Uy, Initial residual = 7.74182e-06, Final residual = 7.74182e-06, No Iterations 0
DICPCG:  Solving for p, Initial residual = 1.72481e-06, Final residual = 9.98636e-07, No Iterations 13
time step continuity errors : sum local = 7.20692e-11, global = -3.79282e-20, cumulative = 3.88163e-19
DICPCG:  Solving for p, Initial residual = 1.64491e-06, Final residual = 8.651e-07, No Iterations 7
time step continuity errors : sum local = 6.23735e-11, global = -2.7613e-20, cumulative = 3.6055e-19
ExecutionTime = 264.17 s  ClockTime = 265 s

Time = 0.495

Courant Number mean: 0.118288 max: 0.981777
smoothSolver:  Solving for Ux, Initial residual = 2.97869e-06, Final residual = 2.97869e-06, No Iterations 0
smoothSolver:  Solving for Uy, Initial residual = 7.71375e-06, Final residual = 7.71375e-06, No Iterations 0
DICPCG:  Solving for p, Initial residual = 1.50299e-06, Final residual = 8.84418e-07, No Iterations 4
time step continuity errors : sum local = 6.39758e-11, global = -4.00974e-21, cumulative = 3.5654e-19
DICPCG:  Solving for p, Initial residual = 1.59914e-06, Final residual = 9.62282e-07, No Iterations 2
time step continuity errors : sum local = 6.94902e-11, global = 1.07078e-20, cumulative = 3.67248e-19
ExecutionTime = 264.2 s  ClockTime = 265 s

Time = 0.495625

Courant Number mean: 0.118288 max: 0.981777
smoothSolver:  Solving for Ux, Initial residual = 2.97507e-06, Final residual = 2.97507e-06, No Iterations 0
smoothSolver:  Solving for Uy, Initial residual = 7.70209e-06, Final residual = 7.70209e-06, No Iterations 0
DICPCG:  Solving for p, Initial residual = 1.7691e-06, Final residual = 9.54128e-07, No Iterations 2
time step continuity errors : sum local = 6.91249e-11, global = 1.81785e-20, cumulative = 3.85426e-19
DICPCG:  Solving for p, Initial residual = 1.63836e-06, Final residual = 8.32237e-07, No Iterations 1
time step continuity errors : sum local = 6.03351e-11, global = -1.60886e-20, cumulative = 3.69338e-19
ExecutionTime = 264.23 s  ClockTime = 265 s

Time = 0.49625

Courant Number mean: 0.118288 max: 0.981777
smoothSolver:  Solving for Ux, Initial residual = 2.9725e-06, Final residual = 2.9725e-06, No Iterations 0
smoothSolver:  Solving for Uy, Initial residual = 7.69255e-06, Final residual = 7.69255e-06, No Iterations 0
DICPCG:  Solving for p, Initial residual = 1.11021e-06, Final residual = 8.4882e-07, No Iterations 1
time step continuity errors : sum local = 6.15684e-11, global = 6.77087e-21, cumulative = 3.76108e-19
DICPCG:  Solving for p, Initial residual = 1.03587e-06, Final residual = 9.6992e-07, No Iterations 1
time step continuity errors : sum local = 7.03204e-11, global = -1.92554e-20, cumulative = 3.56853e-19
ExecutionTime = 264.25 s  ClockTime = 265 s

Time = 0.496875

Courant Number mean: 0.118288 max: 0.981777
smoothSolver:  Solving for Ux, Initial residual = 2.97044e-06, Final residual = 2.97044e-06, No Iterations 0
smoothSolver:  Solving for Uy, Initial residual = 7.68418e-06, Final residual = 7.68418e-06, No Iterations 0
DICPCG:  Solving for p, Initial residual = 1.1501e-06, Final residual = 8.98769e-07, No Iterations 70
time step continuity errors : sum local = 6.63621e-11, global = -7.37033e-20, cumulative = 2.8315e-19
DICPCG:  Solving for p, Initial residual = 1.68721e-06, Final residual = 9.25244e-07, No Iterations 74
time step continuity errors : sum local = 6.7761e-11, global = 1.04882e-20, cumulative = 2.93638e-19
ExecutionTime = 264.41 s  ClockTime = 266 s

Time = 0.4975

Courant Number mean: 0.118288 max: 0.981777
smoothSolver:  Solving for Ux, Initial residual = 2.95533e-06, Final residual = 2.95533e-06, No Iterations 0
smoothSolver:  Solving for Uy, Initial residual = 7.82636e-06, Final residual = 7.82636e-06, No Iterations 0
DICPCG:  Solving for p, Initial residual = 1.58435e-06, Final residual = 9.54401e-07, No Iterations 29
time step continuity errors : sum local = 7.01236e-11, global = 4.40272e-20, cumulative = 3.37665e-19
DICPCG:  Solving for p, Initial residual = 1.56783e-06, Final residual = 7.33952e-07, No Iterations 15
time step continuity errors : sum local = 5.38712e-11, global = -1.26692e-20, cumulative = 3.24996e-19
ExecutionTime = 264.47 s  ClockTime = 266 s

Time = 0.498125

Courant Number mean: 0.118288 max: 0.981777
smoothSolver:  Solving for Ux, Initial residual = 2.98218e-06, Final residual = 2.98218e-06, No Iterations 0
smoothSolver:  Solving for Uy, Initial residual = 7.63279e-06, Final residual = 7.63279e-06, No Iterations 0
DICPCG:  Solving for p, Initial residual = 1.37865e-06, Final residual = 7.99905e-07, No Iterations 8
time step continuity errors : sum local = 5.81e-11, global = -1.41307e-20, cumulative = 3.10865e-19
DICPCG:  Solving for p, Initial residual = 1.45931e-06, Final residual = 8.26276e-07, No Iterations 4
time step continuity errors : sum local = 5.98619e-11, global = 6.98145e-21, cumulative = 3.17847e-19
ExecutionTime = 264.5 s  ClockTime = 266 s

Time = 0.49875

Courant Number mean: 0.118288 max: 0.981777
smoothSolver:  Solving for Ux, Initial residual = 2.97402e-06, Final residual = 2.97402e-06, No Iterations 0
smoothSolver:  Solving for Uy, Initial residual = 7.63153e-06, Final residual = 7.63153e-06, No Iterations 0
DICPCG:  Solving for p, Initial residual = 1.52539e-06, Final residual = 9.82814e-07, No Iterations 2
time step continuity errors : sum local = 7.1212e-11, global = -6.75748e-20, cumulative = 2.50272e-19
DICPCG:  Solving for p, Initial residual = 1.82386e-06, Final residual = 8.9513e-07, No Iterations 2
time step continuity errors : sum local = 6.50442e-11, global = -3.2266e-20, cumulative = 2.18006e-19
ExecutionTime = 264.53 s  ClockTime = 266 s

Time = 0.499375

Courant Number mean: 0.118288 max: 0.981777
smoothSolver:  Solving for Ux, Initial residual = 2.9701e-06, Final residual = 2.9701e-06, No Iterations 0
smoothSolver:  Solving for Uy, Initial residual = 7.62502e-06, Final residual = 7.62502e-06, No Iterations 0
DICPCG:  Solving for p, Initial residual = 1.57909e-06, Final residual = 8.6233e-07, No Iterations 1
time step continuity errors : sum local = 6.25296e-11, global = 3.25015e-20, cumulative = 2.50507e-19
DICPCG:  Solving for p, Initial residual = 1.15144e-06, Final residual = 8.78328e-07, No Iterations 1
time step continuity errors : sum local = 6.3688e-11, global = -6.05558e-21, cumulative = 2.44452e-19
ExecutionTime = 264.55 s  ClockTime = 266 s

Time = 0.5

Courant Number mean: 0.118288 max: 0.981777
smoothSolver:  Solving for Ux, Initial residual = 2.96704e-06, Final residual = 2.96704e-06, No Iterations 0
smoothSolver:  Solving for Uy, Initial residual = 7.61723e-06, Final residual = 7.61723e-06, No Iterations 0
DICPCG:  Solving for p, Initial residual = 1.05578e-06, Final residual = 9.66862e-07, No Iterations 1
time step continuity errors : sum local = 7.0067e-11, global = 5.92237e-21, cumulative = 2.50374e-19
DICPCG:  Solving for p, Initial residual = 1.143e-06, Final residual = 9.94697e-07, No Iterations 1
time step continuity errors : sum local = 7.2061e-11, global = -5.2178e-20, cumulative = 1.98196e-19
ExecutionTime = 264.71 s  ClockTime = 266 s

End

