/*---------------------------------------------------------------------------*\
  =========                 |
  \\      /  F ield         | OpenFOAM: The Open Source CFD Toolbox
   \\    /   O peration     | Website:  https://openfoam.org
    \\  /    A nd           | Version:  7
     \\/     M anipulation  |
\*---------------------------------------------------------------------------*/
Build  : 7
Exec   : icoFoam
Date   : Feb 11 2026
Time   : 15:22:38
Host   : "c209-015.frontera.tacc.utexas.edu"
PID    : 243031
I/O    : uncollated
Case   : /work2/11329/kdn849/frontera/COE-347-SP26/cavity160.100.AR0.5
nProcs : 1
sigFpe : Enabling floating point exception trapping (FOAM_SIGFPE).
fileModificationChecking : Monitoring run-time modified files using timeStampMaster (fileModificationSkew 10)
allowSystemOperations : Allowing user-supplied system call operations

// * * * * * * * * * * * * * * * * * * * * * * * * * * * * * * * * * * * * * //
Create time

Create mesh for time = 0

Reading transportProperties

Reading field p

Reading field U

Reading/calculating face flux field phi


Starting time loop

Time = 0.000625

Courant Number mean: 0 max: 0
smoothSolver:  Solving for Ux, Initial residual = 1, Final residual = 7.68518e-06, No Iterations 17
smoothSolver:  Solving for Uy, Initial residual = 0, Final residual = 0, No Iterations 0
DICPCG:  Solving for p, Initial residual = 1, Final residual = 0.0489885, No Iterations 139
time step continuity errors : sum local = 9.01384e-06, global = 4.07807e-20, cumulative = 4.07807e-20
DICPCG:  Solving for p, Initial residual = 0.376852, Final residual = 9.38673e-07, No Iterations 200
time step continuity errors : sum local = 4.2804e-10, global = -1.20508e-20, cumulative = 2.87299e-20
ExecutionTime = 0.17 s  ClockTime = 0 s

Time = 0.00125

Courant Number mean: 0.0311151 max: 0.622189
smoothSolver:  Solving for Ux, Initial residual = 0.196974, Final residual = 8.33144e-06, No Iterations 17
smoothSolver:  Solving for Uy, Initial residual = 0.311989, Final residual = 7.67592e-06, No Iterations 19
DICPCG:  Solving for p, Initial residual = 0.366433, Final residual = 0.0167443, No Iterations 136
time step continuity errors : sum local = 5.34789e-06, global = 9.65733e-21, cumulative = 3.83872e-20
DICPCG:  Solving for p, Initial residual = 0.272964, Final residual = 9.63497e-07, No Iterations 194
time step continuity errors : sum local = 3.43825e-10, global = -2.00232e-20, cumulative = 1.8364e-20
ExecutionTime = 0.26 s  ClockTime = 1 s

Time = 0.001875

Courant Number mean: 0.0483228 max: 0.784229
smoothSolver:  Solving for Ux, Initial residual = 0.0861964, Final residual = 7.1751e-06, No Iterations 16
smoothSolver:  Solving for Uy, Initial residual = 0.135959, Final residual = 6.17403e-06, No Iterations 18
DICPCG:  Solving for p, Initial residual = 0.157128, Final residual = 0.00757638, No Iterations 132
time step continuity errors : sum local = 2.09714e-06, global = 1.53249e-20, cumulative = 3.36889e-20
DICPCG:  Solving for p, Initial residual = 0.126806, Final residual = 7.8701e-07, No Iterations 189
time step continuity errors : sum local = 2.1839e-10, global = 8.10136e-20, cumulative = 1.14703e-19
ExecutionTime = 0.34 s  ClockTime = 1 s

Time = 0.0025

Courant Number mean: 0.0601128 max: 0.840037
smoothSolver:  Solving for Ux, Initial residual = 0.0544238, Final residual = 8.84094e-06, No Iterations 15
smoothSolver:  Solving for Uy, Initial residual = 0.0845864, Final residual = 6.82484e-06, No Iterations 17
DICPCG:  Solving for p, Initial residual = 0.0815193, Final residual = 0.00393256, No Iterations 131
time step continuity errors : sum local = 1.04759e-06, global = 5.63866e-20, cumulative = 1.71089e-19
DICPCG:  Solving for p, Initial residual = 0.0691465, Final residual = 9.19983e-07, No Iterations 187
time step continuity errors : sum local = 2.40413e-10, global = -8.59209e-20, cumulative = 8.51682e-20
ExecutionTime = 0.42 s  ClockTime = 1 s

Time = 0.003125

Courant Number mean: 0.0693975 max: 0.866864
smoothSolver:  Solving for Ux, Initial residual = 0.0402344, Final residual = 7.02474e-06, No Iterations 15
smoothSolver:  Solving for Uy, Initial residual = 0.0608899, Final residual = 8.7147e-06, No Iterations 16
DICPCG:  Solving for p, Initial residual = 0.0546759, Final residual = 0.00271582, No Iterations 130
time step continuity errors : sum local = 7.18919e-07, global = -3.6131e-21, cumulative = 8.15551e-20
DICPCG:  Solving for p, Initial residual = 0.0459853, Final residual = 7.60936e-07, No Iterations 186
time step continuity errors : sum local = 1.97509e-10, global = 5.27766e-20, cumulative = 1.34332e-19
ExecutionTime = 0.51 s  ClockTime = 1 s

Time = 0.00375

Courant Number mean: 0.0772252 max: 0.883033
smoothSolver:  Solving for Ux, Initial residual = 0.0321235, Final residual = 5.90967e-06, No Iterations 15
smoothSolver:  Solving for Uy, Initial residual = 0.0475889, Final residual = 6.91424e-06, No Iterations 16
DICPCG:  Solving for p, Initial residual = 0.0414499, Final residual = 0.00206492, No Iterations 130
time step continuity errors : sum local = 5.47821e-07, global = -2.38448e-20, cumulative = 1.10487e-19
DICPCG:  Solving for p, Initial residual = 0.0350366, Final residual = 9.03584e-07, No Iterations 184
time step continuity errors : sum local = 2.36387e-10, global = 7.37919e-21, cumulative = 1.17866e-19
ExecutionTime = 0.59 s  ClockTime = 1 s

Time = 0.004375

Courant Number mean: 0.084015 max: 0.894142
smoothSolver:  Solving for Ux, Initial residual = 0.0268157, Final residual = 9.00809e-06, No Iterations 14
smoothSolver:  Solving for Uy, Initial residual = 0.039027, Final residual = 9.94764e-06, No Iterations 15
DICPCG:  Solving for p, Initial residual = 0.0336474, Final residual = 0.00150834, No Iterations 131
time step continuity errors : sum local = 4.01369e-07, global = 4.80475e-20, cumulative = 1.65914e-19
DICPCG:  Solving for p, Initial residual = 0.0280475, Final residual = 9.75716e-07, No Iterations 182
time step continuity errors : sum local = 2.56858e-10, global = 1.74659e-20, cumulative = 1.8338e-19
ExecutionTime = 0.67 s  ClockTime = 1 s

Time = 0.005

Courant Number mean: 0.0900908 max: 0.902393
smoothSolver:  Solving for Ux, Initial residual = 0.0230471, Final residual = 7.98591e-06, No Iterations 14
smoothSolver:  Solving for Uy, Initial residual = 0.0330481, Final residual = 8.49756e-06, No Iterations 15
DICPCG:  Solving for p, Initial residual = 0.0284019, Final residual = 0.00134757, No Iterations 131
time step continuity errors : sum local = 3.59732e-07, global = 3.21487e-20, cumulative = 2.15528e-19
DICPCG:  Solving for p, Initial residual = 0.0239347, Final residual = 9.84421e-07, No Iterations 181
time step continuity errors : sum local = 2.60663e-10, global = -4.28516e-20, cumulative = 1.72677e-19
ExecutionTime = 0.75 s  ClockTime = 1 s

Time = 0.005625

Courant Number mean: 0.0955605 max: 0.908837
smoothSolver:  Solving for Ux, Initial residual = 0.0202163, Final residual = 7.18323e-06, No Iterations 14
smoothSolver:  Solving for Uy, Initial residual = 0.028634, Final residual = 7.41464e-06, No Iterations 15
DICPCG:  Solving for p, Initial residual = 0.0246198, Final residual = 0.00117322, No Iterations 131
time step continuity errors : sum local = 3.14087e-07, global = 1.11243e-20, cumulative = 1.83801e-19
DICPCG:  Solving for p, Initial residual = 0.0207823, Final residual = 8.39227e-07, No Iterations 181
time step continuity errors : sum local = 2.23256e-10, global = -9.2641e-20, cumulative = 9.116e-20
ExecutionTime = 0.83 s  ClockTime = 1 s

Time = 0.00625

Courant Number mean: 0.100601 max: 0.91405
smoothSolver:  Solving for Ux, Initial residual = 0.0180055, Final residual = 6.53601e-06, No Iterations 14
smoothSolver:  Solving for Uy, Initial residual = 0.0252413, Final residual = 6.57408e-06, No Iterations 15
DICPCG:  Solving for p, Initial residual = 0.0217655, Final residual = 0.00103586, No Iterations 131
time step continuity errors : sum local = 2.78054e-07, global = -8.25211e-20, cumulative = 8.63891e-21
DICPCG:  Solving for p, Initial residual = 0.0184069, Final residual = 8.9148e-07, No Iterations 180
time step continuity errors : sum local = 2.38025e-10, global = -5.53018e-21, cumulative = 3.10873e-21
ExecutionTime = 0.91 s  ClockTime = 1 s

Time = 0.006875

Courant Number mean: 0.105242 max: 0.918381
smoothSolver:  Solving for Ux, Initial residual = 0.0162338, Final residual = 5.998e-06, No Iterations 14
smoothSolver:  Solving for Uy, Initial residual = 0.0225524, Final residual = 5.90237e-06, No Iterations 15
DICPCG:  Solving for p, Initial residual = 0.0195147, Final residual = 0.000907891, No Iterations 131
time step continuity errors : sum local = 2.44276e-07, global = 1.41978e-19, cumulative = 1.45087e-19
DICPCG:  Solving for p, Initial residual = 0.0165134, Final residual = 9.77907e-07, No Iterations 178
time step continuity errors : sum local = 2.61974e-10, global = 5.59363e-20, cumulative = 2.01023e-19
ExecutionTime = 0.99 s  ClockTime = 1 s

Time = 0.0075

Courant Number mean: 0.109561 max: 0.922052
smoothSolver:  Solving for Ux, Initial residual = 0.0147764, Final residual = 9.70507e-06, No Iterations 13
smoothSolver:  Solving for Uy, Initial residual = 0.0203698, Final residual = 9.27291e-06, No Iterations 14
DICPCG:  Solving for p, Initial residual = 0.0176639, Final residual = 0.000803647, No Iterations 131
time step continuity errors : sum local = 2.16649e-07, global = 8.23842e-20, cumulative = 2.83407e-19
DICPCG:  Solving for p, Initial residual = 0.0149583, Final residual = 8.58575e-07, No Iterations 178
time step continuity errors : sum local = 2.30557e-10, global = 2.41144e-20, cumulative = 3.07522e-19
ExecutionTime = 1.07 s  ClockTime = 1 s

Time = 0.008125

Courant Number mean: 0.11362 max: 0.925214
smoothSolver:  Solving for Ux, Initial residual = 0.0135567, Final residual = 9.01844e-06, No Iterations 13
smoothSolver:  Solving for Uy, Initial residual = 0.0185633, Final residual = 8.47865e-06, No Iterations 14
DICPCG:  Solving for p, Initial residual = 0.0161529, Final residual = 0.000716915, No Iterations 131
time step continuity errors : sum local = 1.93596e-07, global = -4.41886e-20, cumulative = 2.63333e-19
DICPCG:  Solving for p, Initial residual = 0.0136853, Final residual = 7.55011e-07, No Iterations 178
time step continuity errors : sum local = 2.03065e-10, global = -4.20127e-20, cumulative = 2.21321e-19
ExecutionTime = 1.15 s  ClockTime = 1 s

Time = 0.00875

Courant Number mean: 0.117422 max: 0.927976
smoothSolver:  Solving for Ux, Initial residual = 0.01252, Final residual = 8.42429e-06, No Iterations 13
smoothSolver:  Solving for Uy, Initial residual = 0.0170435, Final residual = 7.80682e-06, No Iterations 14
DICPCG:  Solving for p, Initial residual = 0.0148883, Final residual = 0.000653071, No Iterations 131
time step continuity errors : sum local = 1.76619e-07, global = -3.09181e-20, cumulative = 1.90402e-19
DICPCG:  Solving for p, Initial residual = 0.012621, Final residual = 9.34102e-07, No Iterations 177
time step continuity errors : sum local = 2.51654e-10, global = 2.57582e-19, cumulative = 4.47984e-19
ExecutionTime = 1.23 s  ClockTime = 2 s

Time = 0.009375

Courant Number mean: 0.121016 max: 0.930415
smoothSolver:  Solving for Ux, Initial residual = 0.0116278, Final residual = 7.90341e-06, No Iterations 13
smoothSolver:  Solving for Uy, Initial residual = 0.0157477, Final residual = 7.23116e-06, No Iterations 14
DICPCG:  Solving for p, Initial residual = 0.0138249, Final residual = 0.000690586, No Iterations 130
time step continuity errors : sum local = 1.87106e-07, global = 1.91841e-20, cumulative = 4.67168e-19
DICPCG:  Solving for p, Initial residual = 0.0117021, Final residual = 8.47334e-07, No Iterations 177
time step continuity errors : sum local = 2.28673e-10, global = -1.0027e-19, cumulative = 3.66898e-19
ExecutionTime = 1.3 s  ClockTime = 2 s

Time = 0.01

Courant Number mean: 0.124441 max: 0.932588
smoothSolver:  Solving for Ux, Initial residual = 0.0108517, Final residual = 7.44152e-06, No Iterations 13
smoothSolver:  Solving for Uy, Initial residual = 0.0146307, Final residual = 6.73296e-06, No Iterations 14
DICPCG:  Solving for p, Initial residual = 0.013074, Final residual = 0.000639286, No Iterations 130
time step continuity errors : sum local = 1.73463e-07, global = 2.10174e-20, cumulative = 3.87915e-19
DICPCG:  Solving for p, Initial residual = 0.0111556, Final residual = 9.84725e-07, No Iterations 176
time step continuity errors : sum local = 2.66187e-10, global = -1.42117e-20, cumulative = 3.73704e-19
ExecutionTime = 1.39 s  ClockTime = 2 s

Time = 0.010625

Courant Number mean: 0.12769 max: 0.934542
smoothSolver:  Solving for Ux, Initial residual = 0.0101695, Final residual = 7.03062e-06, No Iterations 13
smoothSolver:  Solving for Uy, Initial residual = 0.0136571, Final residual = 6.29693e-06, No Iterations 14
DICPCG:  Solving for p, Initial residual = 0.0122147, Final residual = 0.000599639, No Iterations 130
time step continuity errors : sum local = 1.62922e-07, global = 9.05373e-20, cumulative = 4.64241e-19
DICPCG:  Solving for p, Initial residual = 0.0104227, Final residual = 9.10436e-07, No Iterations 176
time step continuity errors : sum local = 2.46462e-10, global = 4.59343e-20, cumulative = 5.10175e-19
ExecutionTime = 1.47 s  ClockTime = 2 s

Time = 0.01125

Courant Number mean: 0.130775 max: 0.936309
smoothSolver:  Solving for Ux, Initial residual = 0.00956459, Final residual = 6.66085e-06, No Iterations 13
smoothSolver:  Solving for Uy, Initial residual = 0.0128017, Final residual = 5.91255e-06, No Iterations 14
DICPCG:  Solving for p, Initial residual = 0.0115147, Final residual = 0.000556767, No Iterations 130
time step continuity errors : sum local = 1.51484e-07, global = -9.62347e-20, cumulative = 4.13941e-19
DICPCG:  Solving for p, Initial residual = 0.00983166, Final residual = 8.54376e-07, No Iterations 176
time step continuity errors : sum local = 2.31602e-10, global = -1.34341e-19, cumulative = 2.79599e-19
ExecutionTime = 1.55 s  ClockTime = 2 s

Time = 0.011875

Courant Number mean: 0.133742 max: 0.937918
smoothSolver:  Solving for Ux, Initial residual = 0.00902742, Final residual = 6.32757e-06, No Iterations 13
smoothSolver:  Solving for Uy, Initial residual = 0.0120444, Final residual = 9.64179e-06, No Iterations 13
DICPCG:  Solving for p, Initial residual = 0.0108746, Final residual = 0.000519034, No Iterations 130
time step continuity errors : sum local = 1.41405e-07, global = -2.35093e-20, cumulative = 2.5609e-19
DICPCG:  Solving for p, Initial residual = 0.00928664, Final residual = 8.03204e-07, No Iterations 176
time step continuity errors : sum local = 2.18001e-10, global = 8.63743e-21, cumulative = 2.64727e-19
ExecutionTime = 1.62 s  ClockTime = 2 s

Time = 0.0125

Courant Number mean: 0.136587 max: 0.939391
smoothSolver:  Solving for Ux, Initial residual = 0.00854226, Final residual = 6.02532e-06, No Iterations 13
smoothSolver:  Solving for Uy, Initial residual = 0.0113695, Final residual = 9.1131e-06, No Iterations 13
DICPCG:  Solving for p, Initial residual = 0.0103148, Final residual = 0.000477231, No Iterations 130
time step continuity errors : sum local = 1.30187e-07, global = 1.9018e-20, cumulative = 2.83745e-19
DICPCG:  Solving for p, Initial residual = 0.00880396, Final residual = 7.62986e-07, No Iterations 176
time step continuity errors : sum local = 2.07334e-10, global = 2.39007e-20, cumulative = 3.07646e-19
ExecutionTime = 1.73 s  ClockTime = 2 s

Time = 0.013125

Courant Number mean: 0.139312 max: 0.940746
smoothSolver:  Solving for Ux, Initial residual = 0.00810618, Final residual = 5.74837e-06, No Iterations 13
smoothSolver:  Solving for Uy, Initial residual = 0.0107642, Final residual = 8.63778e-06, No Iterations 13
DICPCG:  Solving for p, Initial residual = 0.00980811, Final residual = 0.000486061, No Iterations 129
time step continuity errors : sum local = 1.32839e-07, global = -5.89495e-20, cumulative = 2.48697e-19
DICPCG:  Solving for p, Initial residual = 0.00833835, Final residual = 9.63336e-07, No Iterations 175
time step continuity errors : sum local = 2.6197e-10, global = 1.28933e-19, cumulative = 3.7763e-19
ExecutionTime = 1.81 s  ClockTime = 2 s

Time = 0.01375

Courant Number mean: 0.141924 max: 0.941998
smoothSolver:  Solving for Ux, Initial residual = 0.0077101, Final residual = 9.58083e-06, No Iterations 12
smoothSolver:  Solving for Uy, Initial residual = 0.0102192, Final residual = 8.20881e-06, No Iterations 13
DICPCG:  Solving for p, Initial residual = 0.0094479, Final residual = 0.000448899, No Iterations 129
time step continuity errors : sum local = 1.22814e-07, global = 1.06357e-19, cumulative = 4.83987e-19
DICPCG:  Solving for p, Initial residual = 0.00807625, Final residual = 9.14095e-07, No Iterations 175
time step continuity errors : sum local = 2.48851e-10, global = 8.24939e-20, cumulative = 5.66481e-19
ExecutionTime = 1.89 s  ClockTime = 2 s

Time = 0.014375

Courant Number mean: 0.144446 max: 0.943159
smoothSolver:  Solving for Ux, Initial residual = 0.00734835, Final residual = 9.1738e-06, No Iterations 12
smoothSolver:  Solving for Uy, Initial residual = 0.00972465, Final residual = 7.81882e-06, No Iterations 13
DICPCG:  Solving for p, Initial residual = 0.00898699, Final residual = 0.000412979, No Iterations 129
time step continuity errors : sum local = 1.13086e-07, global = -4.59441e-20, cumulative = 5.20537e-19
DICPCG:  Solving for p, Initial residual = 0.0076789, Final residual = 8.60968e-07, No Iterations 175
time step continuity errors : sum local = 2.34594e-10, global = -7.10797e-20, cumulative = 4.49457e-19
ExecutionTime = 1.97 s  ClockTime = 2 s

Time = 0.015

Courant Number mean: 0.146887 max: 0.94424
smoothSolver:  Solving for Ux, Initial residual = 0.00701861, Final residual = 8.7974e-06, No Iterations 12
smoothSolver:  Solving for Uy, Initial residual = 0.00927444, Final residual = 7.4632e-06, No Iterations 13
DICPCG:  Solving for p, Initial residual = 0.00861238, Final residual = 0.000423086, No Iterations 128
time step continuity errors : sum local = 1.15996e-07, global = 3.12396e-20, cumulative = 4.80697e-19
DICPCG:  Solving for p, Initial residual = 0.0073457, Final residual = 8.07292e-07, No Iterations 175
time step continuity errors : sum local = 2.20119e-10, global = 1.50526e-20, cumulative = 4.9575e-19
ExecutionTime = 2.05 s  ClockTime = 2 s

Time = 0.015625

Courant Number mean: 0.149242 max: 0.945249
smoothSolver:  Solving for Ux, Initial residual = 0.00671455, Final residual = 8.44755e-06, No Iterations 12
smoothSolver:  Solving for Uy, Initial residual = 0.00886348, Final residual = 7.13798e-06, No Iterations 13
DICPCG:  Solving for p, Initial residual = 0.00835381, Final residual = 0.000399245, No Iterations 128
time step continuity errors : sum local = 1.09539e-07, global = 3.82939e-20, cumulative = 5.34043e-19
DICPCG:  Solving for p, Initial residual = 0.00716384, Final residual = 7.58706e-07, No Iterations 175
time step continuity errors : sum local = 2.07006e-10, global = 2.22699e-19, cumulative = 7.56742e-19
ExecutionTime = 2.12 s  ClockTime = 2 s

Time = 0.01625

Courant Number mean: 0.151513 max: 0.946194
smoothSolver:  Solving for Ux, Initial residual = 0.00643351, Final residual = 8.12395e-06, No Iterations 12
smoothSolver:  Solving for Uy, Initial residual = 0.00848622, Final residual = 6.83908e-06, No Iterations 13
DICPCG:  Solving for p, Initial residual = 0.00800656, Final residual = 0.000393272, No Iterations 127
time step continuity errors : sum local = 1.08041e-07, global = -1.51797e-19, cumulative = 6.04945e-19
DICPCG:  Solving for p, Initial residual = 0.00683835, Final residual = 9.93149e-07, No Iterations 174
time step continuity errors : sum local = 2.71214e-10, global = 3.10621e-20, cumulative = 6.36007e-19
ExecutionTime = 2.2 s  ClockTime = 3 s

Time = 0.016875

Courant Number mean: 0.153705 max: 0.947081
smoothSolver:  Solving for Ux, Initial residual = 0.00617499, Final residual = 7.82326e-06, No Iterations 12
smoothSolver:  Solving for Uy, Initial residual = 0.00813899, Final residual = 6.56353e-06, No Iterations 13
DICPCG:  Solving for p, Initial residual = 0.00778577, Final residual = 0.00036351, No Iterations 127
time step continuity errors : sum local = 9.99386e-08, global = -2.20939e-19, cumulative = 4.15068e-19
DICPCG:  Solving for p, Initial residual = 0.0066844, Final residual = 9.441e-07, No Iterations 174
time step continuity errors : sum local = 2.58051e-10, global = -7.86995e-20, cumulative = 3.36368e-19
ExecutionTime = 2.28 s  ClockTime = 3 s

Time = 0.0175

Courant Number mean: 0.155837 max: 0.947917
smoothSolver:  Solving for Ux, Initial residual = 0.00593475, Final residual = 7.54176e-06, No Iterations 12
smoothSolver:  Solving for Uy, Initial residual = 0.00781854, Final residual = 6.30891e-06, No Iterations 13
DICPCG:  Solving for p, Initial residual = 0.00746908, Final residual = 0.000331492, No Iterations 127
time step continuity errors : sum local = 9.12079e-08, global = 4.94971e-20, cumulative = 3.85865e-19
DICPCG:  Solving for p, Initial residual = 0.00640408, Final residual = 9.05576e-07, No Iterations 174
time step continuity errors : sum local = 2.47704e-10, global = 5.68074e-20, cumulative = 4.42673e-19
ExecutionTime = 2.36 s  ClockTime = 3 s

Time = 0.018125

Courant Number mean: 0.15791 max: 0.948706
smoothSolver:  Solving for Ux, Initial residual = 0.0057102, Final residual = 7.27771e-06, No Iterations 12
smoothSolver:  Solving for Uy, Initial residual = 0.00752155, Final residual = 6.07251e-06, No Iterations 13
DICPCG:  Solving for p, Initial residual = 0.00720562, Final residual = 0.000339266, No Iterations 126
time step continuity errors : sum local = 9.34365e-08, global = -6.66085e-20, cumulative = 3.76064e-19
DICPCG:  Solving for p, Initial residual = 0.00616285, Final residual = 8.71996e-07, No Iterations 174
time step continuity errors : sum local = 2.3868e-10, global = -1.19308e-19, cumulative = 2.56756e-19
ExecutionTime = 2.43 s  ClockTime = 3 s

Time = 0.01875

Courant Number mean: 0.159923 max: 0.949451
smoothSolver:  Solving for Ux, Initial residual = 0.00550147, Final residual = 7.03105e-06, No Iterations 12
smoothSolver:  Solving for Uy, Initial residual = 0.00724586, Final residual = 5.85285e-06, No Iterations 13
DICPCG:  Solving for p, Initial residual = 0.00701589, Final residual = 0.000343767, No Iterations 125
time step continuity errors : sum local = 9.47764e-08, global = 1.06798e-21, cumulative = 2.57824e-19
DICPCG:  Solving for p, Initial residual = 0.00599282, Final residual = 8.27907e-07, No Iterations 174
time step continuity errors : sum local = 2.26763e-10, global = 3.99524e-20, cumulative = 2.97777e-19
ExecutionTime = 2.51 s  ClockTime = 3 s

Time = 0.019375

Courant Number mean: 0.161874 max: 0.950158
smoothSolver:  Solving for Ux, Initial residual = 0.00530641, Final residual = 6.79904e-06, No Iterations 12
smoothSolver:  Solving for Uy, Initial residual = 0.0069894, Final residual = 9.76833e-06, No Iterations 12
DICPCG:  Solving for p, Initial residual = 0.00678179, Final residual = 0.000318248, No Iterations 125
time step continuity errors : sum local = 8.77861e-08, global = -7.6941e-20, cumulative = 2.20836e-19
DICPCG:  Solving for p, Initial residual = 0.00581509, Final residual = 9.63588e-07, No Iterations 173
time step continuity errors : sum local = 2.64035e-10, global = 2.03109e-21, cumulative = 2.22867e-19
ExecutionTime = 2.59 s  ClockTime = 3 s

Time = 0.02

Courant Number mean: 0.163768 max: 0.950828
smoothSolver:  Solving for Ux, Initial residual = 0.005123, Final residual = 6.57989e-06, No Iterations 12
smoothSolver:  Solving for Uy, Initial residual = 0.0067504, Final residual = 9.43789e-06, No Iterations 12
DICPCG:  Solving for p, Initial residual = 0.00655481, Final residual = 0.000321267, No Iterations 124
time step continuity errors : sum local = 8.86688e-08, global = -2.00147e-19, cumulative = 2.27199e-20
DICPCG:  Solving for p, Initial residual = 0.0055959, Final residual = 9.26734e-07, No Iterations 173
time step continuity errors : sum local = 2.54085e-10, global = 6.32243e-20, cumulative = 8.59441e-20
ExecutionTime = 2.66 s  ClockTime = 3 s

Time = 0.020625

Courant Number mean: 0.165605 max: 0.951466
smoothSolver:  Solving for Ux, Initial residual = 0.00495068, Final residual = 6.37318e-06, No Iterations 12
smoothSolver:  Solving for Uy, Initial residual = 0.00652643, Final residual = 9.12796e-06, No Iterations 12
DICPCG:  Solving for p, Initial residual = 0.00638727, Final residual = 0.000289682, No Iterations 124
time step continuity errors : sum local = 7.99859e-08, global = 7.39451e-20, cumulative = 1.59889e-19
DICPCG:  Solving for p, Initial residual = 0.00548179, Final residual = 8.95022e-07, No Iterations 173
time step continuity errors : sum local = 2.45527e-10, global = 4.98679e-20, cumulative = 2.09757e-19
ExecutionTime = 2.74 s  ClockTime = 3 s

Time = 0.02125

Courant Number mean: 0.167403 max: 0.952074
smoothSolver:  Solving for Ux, Initial residual = 0.00478927, Final residual = 6.17861e-06, No Iterations 12
smoothSolver:  Solving for Uy, Initial residual = 0.00631695, Final residual = 8.83777e-06, No Iterations 12
DICPCG:  Solving for p, Initial residual = 0.00617342, Final residual = 0.000303906, No Iterations 123
time step continuity errors : sum local = 8.39046e-08, global = -1.57488e-19, cumulative = 5.22689e-20
DICPCG:  Solving for p, Initial residual = 0.00528176, Final residual = 8.56249e-07, No Iterations 173
time step continuity errors : sum local = 2.35021e-10, global = -1.25266e-20, cumulative = 3.97424e-20
ExecutionTime = 2.81 s  ClockTime = 3 s

Time = 0.021875

Courant Number mean: 0.169159 max: 0.952653
smoothSolver:  Solving for Ux, Initial residual = 0.0046369, Final residual = 5.99424e-06, No Iterations 12
smoothSolver:  Solving for Uy, Initial residual = 0.00611997, Final residual = 8.56457e-06, No Iterations 12
DICPCG:  Solving for p, Initial residual = 0.00603947, Final residual = 0.000269723, No Iterations 123
time step continuity errors : sum local = 7.44623e-08, global = 9.64205e-20, cumulative = 1.36163e-19
DICPCG:  Solving for p, Initial residual = 0.00518537, Final residual = 8.25188e-07, No Iterations 173
time step continuity errors : sum local = 2.26615e-10, global = 7.78209e-20, cumulative = 2.13984e-19
ExecutionTime = 2.89 s  ClockTime = 3 s

Time = 0.0225

Courant Number mean: 0.17087 max: 0.953208
smoothSolver:  Solving for Ux, Initial residual = 0.00449229, Final residual = 5.81887e-06, No Iterations 12
smoothSolver:  Solving for Uy, Initial residual = 0.00593491, Final residual = 8.30778e-06, No Iterations 12
DICPCG:  Solving for p, Initial residual = 0.00583332, Final residual = 0.000287504, No Iterations 122
time step continuity errors : sum local = 7.92819e-08, global = -2.34453e-19, cumulative = -2.04696e-20
DICPCG:  Solving for p, Initial residual = 0.00499585, Final residual = 9.57864e-07, No Iterations 164
time step continuity errors : sum local = 2.63843e-10, global = 3.87674e-21, cumulative = -1.65928e-20
ExecutionTime = 2.96 s  ClockTime = 3 s

Time = 0.023125

Courant Number mean: 0.172537 max: 0.953737
smoothSolver:  Solving for Ux, Initial residual = 0.00435534, Final residual = 9.82806e-06, No Iterations 11
smoothSolver:  Solving for Uy, Initial residual = 0.00576039, Final residual = 8.06534e-06, No Iterations 12
DICPCG:  Solving for p, Initial residual = 0.00572693, Final residual = 0.000245529, No Iterations 124
time step continuity errors : sum local = 6.77291e-08, global = -2.4041e-19, cumulative = -2.57003e-19
DICPCG:  Solving for p, Initial residual = 0.0048255, Final residual = 9.95068e-07, No Iterations 172
time step continuity errors : sum local = 2.73617e-10, global = 4.22033e-20, cumulative = -2.148e-19
ExecutionTime = 3.05 s  ClockTime = 3 s

Time = 0.02375

Courant Number mean: 0.174161 max: 0.954245
smoothSolver:  Solving for Ux, Initial residual = 0.00422638, Final residual = 9.55131e-06, No Iterations 11
smoothSolver:  Solving for Uy, Initial residual = 0.00559728, Final residual = 7.83874e-06, No Iterations 12
DICPCG:  Solving for p, Initial residual = 0.00554555, Final residual = 0.00026094, No Iterations 125
time step continuity errors : sum local = 7.19958e-08, global = 4.79002e-20, cumulative = -1.669e-19
DICPCG:  Solving for p, Initial residual = 0.00473406, Final residual = 8.17917e-07, No Iterations 172
time step continuity errors : sum local = 2.25281e-10, global = -1.95936e-19, cumulative = -3.62835e-19
ExecutionTime = 3.13 s  ClockTime = 3 s

Time = 0.024375

Courant Number mean: 0.175742 max: 0.954732
smoothSolver:  Solving for Ux, Initial residual = 0.00410396, Final residual = 9.28915e-06, No Iterations 11
smoothSolver:  Solving for Uy, Initial residual = 0.00544232, Final residual = 7.62302e-06, No Iterations 12
DICPCG:  Solving for p, Initial residual = 0.00541683, Final residual = 0.00025822, No Iterations 125
time step continuity errors : sum local = 7.12991e-08, global = -5.90447e-20, cumulative = -4.2188e-19
DICPCG:  Solving for p, Initial residual = 0.00465215, Final residual = 9.43165e-07, No Iterations 168
time step continuity errors : sum local = 2.5987e-10, global = 1.38371e-20, cumulative = -4.08043e-19
ExecutionTime = 3.2 s  ClockTime = 4 s

Time = 0.025

Courant Number mean: 0.177285 max: 0.955199
smoothSolver:  Solving for Ux, Initial residual = 0.0039877, Final residual = 9.03999e-06, No Iterations 11
smoothSolver:  Solving for Uy, Initial residual = 0.00529497, Final residual = 7.41808e-06, No Iterations 12
DICPCG:  Solving for p, Initial residual = 0.0052847, Final residual = 0.000250399, No Iterations 125
time step continuity errors : sum local = 6.91313e-08, global = 2.14245e-19, cumulative = -1.93798e-19
DICPCG:  Solving for p, Initial residual = 0.00453737, Final residual = 8.77903e-07, No Iterations 172
time step continuity errors : sum local = 2.41963e-10, global = 1.99758e-19, cumulative = 5.95977e-21
ExecutionTime = 3.31 s  ClockTime = 4 s

Time = 0.025625

Courant Number mean: 0.178802 max: 0.955649
smoothSolver:  Solving for Ux, Initial residual = 0.0038767, Final residual = 8.80128e-06, No Iterations 11
smoothSolver:  Solving for Uy, Initial residual = 0.00515561, Final residual = 7.22397e-06, No Iterations 12
DICPCG:  Solving for p, Initial residual = 0.0051597, Final residual = 0.000249945, No Iterations 125
time step continuity errors : sum local = 6.9059e-08, global = 3.15028e-20, cumulative = 3.74626e-20
DICPCG:  Solving for p, Initial residual = 0.00443412, Final residual = 9.49454e-07, No Iterations 171
time step continuity errors : sum local = 2.61947e-10, global = 1.04157e-19, cumulative = 1.4162e-19
ExecutionTime = 3.38 s  ClockTime = 4 s

Time = 0.02625

Courant Number mean: 0.180286 max: 0.956081
smoothSolver:  Solving for Ux, Initial residual = 0.00377159, Final residual = 8.57325e-06, No Iterations 11
smoothSolver:  Solving for Uy, Initial residual = 0.00502322, Final residual = 7.03962e-06, No Iterations 12
DICPCG:  Solving for p, Initial residual = 0.00504859, Final residual = 0.00024417, No Iterations 125
time step continuity errors : sum local = 6.74622e-08, global = -1.25238e-19, cumulative = 1.63816e-20
DICPCG:  Solving for p, Initial residual = 0.0043403, Final residual = 8.48194e-07, No Iterations 172
time step continuity errors : sum local = 2.3399e-10, global = -1.44441e-19, cumulative = -1.28059e-19
ExecutionTime = 3.46 s  ClockTime = 4 s

Time = 0.026875

Courant Number mean: 0.181738 max: 0.956497
smoothSolver:  Solving for Ux, Initial residual = 0.00367104, Final residual = 8.35478e-06, No Iterations 11
smoothSolver:  Solving for Uy, Initial residual = 0.00489732, Final residual = 6.8641e-06, No Iterations 12
DICPCG:  Solving for p, Initial residual = 0.0049342, Final residual = 0.000241182, No Iterations 125
time step continuity errors : sum local = 6.66739e-08, global = 2.75403e-20, cumulative = -1.00519e-19
DICPCG:  Solving for p, Initial residual = 0.00424361, Final residual = 8.10328e-07, No Iterations 172
time step continuity errors : sum local = 2.23675e-10, global = -4.55123e-20, cumulative = -1.46031e-19
ExecutionTime = 3.53 s  ClockTime = 4 s

Time = 0.0275

Courant Number mean: 0.183159 max: 0.956899
smoothSolver:  Solving for Ux, Initial residual = 0.0035751, Final residual = 8.14673e-06, No Iterations 11
smoothSolver:  Solving for Uy, Initial residual = 0.00477749, Final residual = 6.69706e-06, No Iterations 12
DICPCG:  Solving for p, Initial residual = 0.00483051, Final residual = 0.00023788, No Iterations 125
time step continuity errors : sum local = 6.57733e-08, global = -7.8313e-20, cumulative = -2.24344e-19
DICPCG:  Solving for p, Initial residual = 0.00415559, Final residual = 8.06885e-07, No Iterations 172
time step continuity errors : sum local = 2.22802e-10, global = -7.04776e-20, cumulative = -2.94821e-19
ExecutionTime = 3.61 s  ClockTime = 4 s

Time = 0.028125

Courant Number mean: 0.184548 max: 0.957286
smoothSolver:  Solving for Ux, Initial residual = 0.00348318, Final residual = 7.947e-06, No Iterations 11
smoothSolver:  Solving for Uy, Initial residual = 0.00466322, Final residual = 6.53765e-06, No Iterations 12
DICPCG:  Solving for p, Initial residual = 0.00472912, Final residual = 0.000234579, No Iterations 125
time step continuity errors : sum local = 6.48854e-08, global = -1.81439e-19, cumulative = -4.76261e-19
DICPCG:  Solving for p, Initial residual = 0.00406929, Final residual = 7.85792e-07, No Iterations 172
time step continuity errors : sum local = 2.17081e-10, global = -7.86614e-20, cumulative = -5.54922e-19
ExecutionTime = 3.69 s  ClockTime = 4 s

Time = 0.02875

Courant Number mean: 0.185906 max: 0.957661
smoothSolver:  Solving for Ux, Initial residual = 0.00339527, Final residual = 7.75553e-06, No Iterations 11
smoothSolver:  Solving for Uy, Initial residual = 0.0045542, Final residual = 6.38552e-06, No Iterations 12
DICPCG:  Solving for p, Initial residual = 0.00463216, Final residual = 0.000215644, No Iterations 126
time step continuity errors : sum local = 5.96414e-08, global = 7.43571e-20, cumulative = -4.80565e-19
DICPCG:  Solving for p, Initial residual = 0.00395659, Final residual = 7.75151e-07, No Iterations 172
time step continuity errors : sum local = 2.14217e-10, global = -4.02485e-20, cumulative = -5.20814e-19
ExecutionTime = 3.76 s  ClockTime = 4 s

Time = 0.029375

Courant Number mean: 0.187234 max: 0.958023
smoothSolver:  Solving for Ux, Initial residual = 0.00331142, Final residual = 7.57159e-06, No Iterations 11
smoothSolver:  Solving for Uy, Initial residual = 0.00445005, Final residual = 6.24008e-06, No Iterations 12
DICPCG:  Solving for p, Initial residual = 0.00453449, Final residual = 0.000215982, No Iterations 126
time step continuity errors : sum local = 5.97562e-08, global = -5.75368e-20, cumulative = -5.7835e-19
DICPCG:  Solving for p, Initial residual = 0.00389796, Final residual = 7.62831e-07, No Iterations 172
time step continuity errors : sum local = 2.10886e-10, global = 1.28109e-20, cumulative = -5.65539e-19
ExecutionTime = 3.84 s  ClockTime = 4 s

Time = 0.03

Courant Number mean: 0.188534 max: 0.958373
smoothSolver:  Solving for Ux, Initial residual = 0.00323103, Final residual = 7.39469e-06, No Iterations 11
smoothSolver:  Solving for Uy, Initial residual = 0.00435038, Final residual = 6.10088e-06, No Iterations 12
DICPCG:  Solving for p, Initial residual = 0.00443931, Final residual = 0.000216695, No Iterations 126
time step continuity errors : sum local = 5.99741e-08, global = -2.15828e-19, cumulative = -7.81367e-19
DICPCG:  Solving for p, Initial residual = 0.00381959, Final residual = 7.38987e-07, No Iterations 172
time step continuity errors : sum local = 2.04386e-10, global = -1.42216e-19, cumulative = -9.23584e-19
ExecutionTime = 3.91 s  ClockTime = 4 s

Time = 0.030625

Courant Number mean: 0.189815 max: 0.958712
smoothSolver:  Solving for Ux, Initial residual = 0.00315389, Final residual = 7.22528e-06, No Iterations 11
smoothSolver:  Solving for Uy, Initial residual = 0.004255, Final residual = 5.96765e-06, No Iterations 12
DICPCG:  Solving for p, Initial residual = 0.00435781, Final residual = 0.00021447, No Iterations 126
time step continuity errors : sum local = 5.93805e-08, global = -9.34682e-21, cumulative = -9.32931e-19
DICPCG:  Solving for p, Initial residual = 0.00375302, Final residual = 9.77722e-07, No Iterations 171
time step continuity errors : sum local = 2.70552e-10, global = 1.09154e-20, cumulative = -9.22015e-19
ExecutionTime = 3.99 s  ClockTime = 4 s

Time = 0.03125

Courant Number mean: 0.191072 max: 0.95904
smoothSolver:  Solving for Ux, Initial residual = 0.00307962, Final residual = 7.06221e-06, No Iterations 11
smoothSolver:  Solving for Uy, Initial residual = 0.00416356, Final residual = 5.83984e-06, No Iterations 12
DICPCG:  Solving for p, Initial residual = 0.00427939, Final residual = 0.000206753, No Iterations 127
time step continuity errors : sum local = 5.72619e-08, global = 2.92943e-20, cumulative = -8.92721e-19
DICPCG:  Solving for p, Initial residual = 0.0036729, Final residual = 9.60536e-07, No Iterations 171
time step continuity errors : sum local = 2.65895e-10, global = 1.94795e-19, cumulative = -6.97926e-19
ExecutionTime = 4.06 s  ClockTime = 4 s

Time = 0.031875

Courant Number mean: 0.192307 max: 0.959358
smoothSolver:  Solving for Ux, Initial residual = 0.00300816, Final residual = 6.90519e-06, No Iterations 11
smoothSolver:  Solving for Uy, Initial residual = 0.00407583, Final residual = 9.88375e-06, No Iterations 11
DICPCG:  Solving for p, Initial residual = 0.00421099, Final residual = 0.000208999, No Iterations 129
time step continuity errors : sum local = 5.79249e-08, global = 1.13273e-19, cumulative = -5.84653e-19
DICPCG:  Solving for p, Initial residual = 0.00358475, Final residual = 9.37878e-07, No Iterations 171
time step continuity errors : sum local = 2.5971e-10, global = -3.75436e-20, cumulative = -6.22196e-19
ExecutionTime = 4.14 s  ClockTime = 4 s

Time = 0.0325

Courant Number mean: 0.193517 max: 0.959667
smoothSolver:  Solving for Ux, Initial residual = 0.0029398, Final residual = 6.754e-06, No Iterations 11
smoothSolver:  Solving for Uy, Initial residual = 0.0039915, Final residual = 9.68015e-06, No Iterations 11
DICPCG:  Solving for p, Initial residual = 0.00415939, Final residual = 0.000207218, No Iterations 130
time step continuity errors : sum local = 5.745e-08, global = -1.71125e-20, cumulative = -6.39309e-19
DICPCG:  Solving for p, Initial residual = 0.00356796, Final residual = 8.92657e-07, No Iterations 171
time step continuity errors : sum local = 2.47286e-10, global = -8.19214e-20, cumulative = -7.2123e-19
ExecutionTime = 4.22 s  ClockTime = 5 s

Time = 0.033125

Courant Number mean: 0.194705 max: 0.959967
smoothSolver:  Solving for Ux, Initial residual = 0.00287397, Final residual = 6.6078e-06, No Iterations 11
smoothSolver:  Solving for Uy, Initial residual = 0.00391025, Final residual = 9.48383e-06, No Iterations 11
DICPCG:  Solving for p, Initial residual = 0.00406735, Final residual = 0.000193975, No Iterations 131
time step continuity errors : sum local = 5.37878e-08, global = -6.81769e-20, cumulative = -7.89407e-19
DICPCG:  Solving for p, Initial residual = 0.00348568, Final residual = 8.48443e-07, No Iterations 171
time step continuity errors : sum local = 2.35134e-10, global = 2.04934e-19, cumulative = -5.84473e-19
ExecutionTime = 4.29 s  ClockTime = 5 s

Time = 0.03375

Courant Number mean: 0.19587 max: 0.960258
smoothSolver:  Solving for Ux, Initial residual = 0.00281059, Final residual = 6.46686e-06, No Iterations 11
smoothSolver:  Solving for Uy, Initial residual = 0.0038321, Final residual = 9.29484e-06, No Iterations 11
DICPCG:  Solving for p, Initial residual = 0.00398218, Final residual = 0.000195863, No Iterations 131
time step continuity errors : sum local = 5.43342e-08, global = 1.4939e-19, cumulative = -4.35083e-19
DICPCG:  Solving for p, Initial residual = 0.00343113, Final residual = 9.04605e-07, No Iterations 170
time step continuity errors : sum local = 2.50823e-10, global = 8.02539e-20, cumulative = -3.54829e-19
ExecutionTime = 4.37 s  ClockTime = 5 s

Time = 0.034375

Courant Number mean: 0.197013 max: 0.96054
smoothSolver:  Solving for Ux, Initial residual = 0.0027493, Final residual = 6.3309e-06, No Iterations 11
smoothSolver:  Solving for Uy, Initial residual = 0.00375687, Final residual = 9.11283e-06, No Iterations 11
DICPCG:  Solving for p, Initial residual = 0.00391311, Final residual = 0.000184207, No Iterations 131
time step continuity errors : sum local = 5.11263e-08, global = 2.66239e-19, cumulative = -8.85907e-20
DICPCG:  Solving for p, Initial residual = 0.00337169, Final residual = 9.10878e-07, No Iterations 170
time step continuity errors : sum local = 2.52641e-10, global = -4.41089e-20, cumulative = -1.327e-19
ExecutionTime = 4.45 s  ClockTime = 5 s

Time = 0.035

Courant Number mean: 0.198133 max: 0.960815
smoothSolver:  Solving for Ux, Initial residual = 0.00269007, Final residual = 6.19967e-06, No Iterations 11
smoothSolver:  Solving for Uy, Initial residual = 0.00368445, Final residual = 8.93753e-06, No Iterations 11
DICPCG:  Solving for p, Initial residual = 0.00384864, Final residual = 0.000190247, No Iterations 131
time step continuity errors : sum local = 5.28152e-08, global = -4.44014e-20, cumulative = -1.77101e-19
DICPCG:  Solving for p, Initial residual = 0.0033173, Final residual = 8.75141e-07, No Iterations 170
time step continuity errors : sum local = 2.4282e-10, global = 4.56494e-21, cumulative = -1.72536e-19
ExecutionTime = 4.52 s  ClockTime = 5 s

Time = 0.035625

Courant Number mean: 0.199233 max: 0.961083
smoothSolver:  Solving for Ux, Initial residual = 0.00263297, Final residual = 6.07283e-06, No Iterations 11
smoothSolver:  Solving for Uy, Initial residual = 0.00361457, Final residual = 8.76833e-06, No Iterations 11
DICPCG:  Solving for p, Initial residual = 0.00378382, Final residual = 0.000187848, No Iterations 73
time step continuity errors : sum local = 6.24935e-08, global = 2.58838e-19, cumulative = 8.63018e-20
DICPCG:  Solving for p, Initial residual = 0.00323373, Final residual = 8.78828e-07, No Iterations 169
time step continuity errors : sum local = 2.43967e-10, global = 1.39006e-19, cumulative = 2.25308e-19
ExecutionTime = 4.59 s  ClockTime = 5 s

Time = 0.03625

Courant Number mean: 0.200315 max: 0.961343
smoothSolver:  Solving for Ux, Initial residual = 0.00257546, Final residual = 5.9397e-06, No Iterations 11
smoothSolver:  Solving for Uy, Initial residual = 0.00356318, Final residual = 8.64345e-06, No Iterations 11
DICPCG:  Solving for p, Initial residual = 0.00389575, Final residual = 0.000183982, No Iterations 131
time step continuity errors : sum local = 5.1034e-08, global = -5.5151e-20, cumulative = 1.70157e-19
DICPCG:  Solving for p, Initial residual = 0.00331716, Final residual = 8.96734e-07, No Iterations 169
time step continuity errors : sum local = 2.48792e-10, global = -9.08748e-21, cumulative = 1.61069e-19
ExecutionTime = 4.67 s  ClockTime = 5 s

Time = 0.036875

Courant Number mean: 0.201383 max: 0.961595
smoothSolver:  Solving for Ux, Initial residual = 0.00252496, Final residual = 5.83096e-06, No Iterations 11
smoothSolver:  Solving for Uy, Initial residual = 0.00348326, Final residual = 8.44829e-06, No Iterations 11
DICPCG:  Solving for p, Initial residual = 0.00372577, Final residual = 0.00018566, No Iterations 131
time step continuity errors : sum local = 5.15561e-08, global = 1.5903e-19, cumulative = 3.20099e-19
DICPCG:  Solving for p, Initial residual = 0.00319361, Final residual = 9.10795e-07, No Iterations 169
time step continuity errors : sum local = 2.52805e-10, global = -1.09788e-19, cumulative = 2.10311e-19
ExecutionTime = 4.74 s  ClockTime = 5 s

Time = 0.0375

Courant Number mean: 0.202433 max: 0.961842
smoothSolver:  Solving for Ux, Initial residual = 0.00247352, Final residual = 9.92072e-06, No Iterations 10
smoothSolver:  Solving for Uy, Initial residual = 0.00341877, Final residual = 8.29407e-06, No Iterations 11
DICPCG:  Solving for p, Initial residual = 0.00362002, Final residual = 0.000179286, No Iterations 72
time step continuity errors : sum local = 5.91549e-08, global = 7.26594e-21, cumulative = 2.17577e-19
DICPCG:  Solving for p, Initial residual = 0.00308962, Final residual = 8.49185e-07, No Iterations 169
time step continuity errors : sum local = 2.35984e-10, global = -4.72912e-20, cumulative = 1.70286e-19
ExecutionTime = 4.83 s  ClockTime = 5 s

Time = 0.038125

Courant Number mean: 0.203465 max: 0.962083
smoothSolver:  Solving for Ux, Initial residual = 0.0024216, Final residual = 9.71185e-06, No Iterations 10
smoothSolver:  Solving for Uy, Initial residual = 0.00337088, Final residual = 8.17792e-06, No Iterations 11
DICPCG:  Solving for p, Initial residual = 0.0036904, Final residual = 0.000178891, No Iterations 131
time step continuity errors : sum local = 4.96722e-08, global = 8.44408e-20, cumulative = 2.54727e-19
DICPCG:  Solving for p, Initial residual = 0.00314455, Final residual = 7.87834e-07, No Iterations 169
time step continuity errors : sum local = 2.18764e-10, global = 1.54228e-19, cumulative = 4.08955e-19
ExecutionTime = 4.91 s  ClockTime = 5 s

Time = 0.03875

Courant Number mean: 0.204481 max: 0.962316
smoothSolver:  Solving for Ux, Initial residual = 0.00237539, Final residual = 9.53861e-06, No Iterations 10
smoothSolver:  Solving for Uy, Initial residual = 0.00330016, Final residual = 8.00473e-06, No Iterations 11
DICPCG:  Solving for p, Initial residual = 0.00355754, Final residual = 0.000176638, No Iterations 131
time step continuity errors : sum local = 4.90939e-08, global = -1.38899e-19, cumulative = 2.70056e-19
DICPCG:  Solving for p, Initial residual = 0.00305329, Final residual = 8.78187e-07, No Iterations 169
time step continuity errors : sum local = 2.43985e-10, global = 5.13167e-20, cumulative = 3.21372e-19
ExecutionTime = 4.99 s  ClockTime = 5 s

Time = 0.039375

Courant Number mean: 0.20548 max: 0.962545
smoothSolver:  Solving for Ux, Initial residual = 0.00232859, Final residual = 9.35641e-06, No Iterations 10
smoothSolver:  Solving for Uy, Initial residual = 0.00324183, Final residual = 7.86506e-06, No Iterations 11
DICPCG:  Solving for p, Initial residual = 0.00345397, Final residual = 0.000166399, No Iterations 72
time step continuity errors : sum local = 5.49783e-08, global = -9.07694e-20, cumulative = 2.30603e-19
DICPCG:  Solving for p, Initial residual = 0.00294784, Final residual = 9.87457e-07, No Iterations 167
time step continuity errors : sum local = 2.74387e-10, global = -1.27317e-20, cumulative = 2.17871e-19
ExecutionTime = 5.05 s  ClockTime = 5 s

Time = 0.04

Courant Number mean: 0.206462 max: 0.962769
smoothSolver:  Solving for Ux, Initial residual = 0.00228161, Final residual = 9.16643e-06, No Iterations 10
smoothSolver:  Solving for Uy, Initial residual = 0.00319835, Final residual = 7.75974e-06, No Iterations 11
DICPCG:  Solving for p, Initial residual = 0.00351514, Final residual = 0.000170644, No Iterations 131
time step continuity errors : sum local = 4.74245e-08, global = -1.18461e-19, cumulative = 9.94105e-20
DICPCG:  Solving for p, Initial residual = 0.00299693, Final residual = 9.49025e-07, No Iterations 168
time step continuity errors : sum local = 2.63714e-10, global = 8.45525e-20, cumulative = 1.83963e-19
ExecutionTime = 5.13 s  ClockTime = 5 s

Time = 0.040625

Courant Number mean: 0.207427 max: 0.962985
smoothSolver:  Solving for Ux, Initial residual = 0.00223962, Final residual = 9.00753e-06, No Iterations 10
smoothSolver:  Solving for Uy, Initial residual = 0.003134, Final residual = 7.60211e-06, No Iterations 11
DICPCG:  Solving for p, Initial residual = 0.00339564, Final residual = 0.000168559, No Iterations 131
time step continuity errors : sum local = 4.68901e-08, global = -4.5562e-20, cumulative = 1.38401e-19
DICPCG:  Solving for p, Initial residual = 0.00291551, Final residual = 8.79383e-07, No Iterations 168
time step continuity errors : sum local = 2.44426e-10, global = -7.66039e-20, cumulative = 6.1797e-20
ExecutionTime = 5.2 s  ClockTime = 6 s

Time = 0.04125

Courant Number mean: 0.208376 max: 0.963198
smoothSolver:  Solving for Ux, Initial residual = 0.00219714, Final residual = 8.84047e-06, No Iterations 10
smoothSolver:  Solving for Uy, Initial residual = 0.00308071, Final residual = 7.47451e-06, No Iterations 11
DICPCG:  Solving for p, Initial residual = 0.00329946, Final residual = 0.000155417, No Iterations 72
time step continuity errors : sum local = 5.13973e-08, global = 9.21081e-20, cumulative = 1.53905e-19
DICPCG:  Solving for p, Initial residual = 0.00281583, Final residual = 9.24579e-07, No Iterations 166
time step continuity errors : sum local = 2.5702e-10, global = -2.80702e-20, cumulative = 1.25835e-19
ExecutionTime = 5.26 s  ClockTime = 6 s

Time = 0.041875

Courant Number mean: 0.209309 max: 0.963405
smoothSolver:  Solving for Ux, Initial residual = 0.00215432, Final residual = 8.66629e-06, No Iterations 10
smoothSolver:  Solving for Uy, Initial residual = 0.00304102, Final residual = 7.37837e-06, No Iterations 11
DICPCG:  Solving for p, Initial residual = 0.003354, Final residual = 0.000162228, No Iterations 131
time step continuity errors : sum local = 4.51218e-08, global = -1.17797e-19, cumulative = 8.03789e-21
DICPCG:  Solving for p, Initial residual = 0.00286097, Final residual = 9.82324e-07, No Iterations 168
time step continuity errors : sum local = 2.73236e-10, global = -1.21286e-19, cumulative = -1.13249e-19
ExecutionTime = 5.34 s  ClockTime = 6 s

Time = 0.0425

Courant Number mean: 0.210228 max: 0.963606
smoothSolver:  Solving for Ux, Initial residual = 0.00211574, Final residual = 8.52033e-06, No Iterations 10
smoothSolver:  Solving for Uy, Initial residual = 0.00298214, Final residual = 7.2341e-06, No Iterations 11
DICPCG:  Solving for p, Initial residual = 0.0032457, Final residual = 0.000160017, No Iterations 131
time step continuity errors : sum local = 4.45516e-08, global = 2.04665e-20, cumulative = -9.27821e-20
DICPCG:  Solving for p, Initial residual = 0.00278633, Final residual = 9.1346e-07, No Iterations 166
time step continuity errors : sum local = 2.53901e-10, global = 1.05582e-19, cumulative = 1.27999e-20
ExecutionTime = 5.41 s  ClockTime = 6 s

Time = 0.043125

Courant Number mean: 0.211133 max: 0.963804
smoothSolver:  Solving for Ux, Initial residual = 0.00207674, Final residual = 8.36759e-06, No Iterations 10
smoothSolver:  Solving for Uy, Initial residual = 0.00293322, Final residual = 7.11692e-06, No Iterations 11
DICPCG:  Solving for p, Initial residual = 0.0031561, Final residual = 0.000144599, No Iterations 72
time step continuity errors : sum local = 4.79101e-08, global = -2.55575e-20, cumulative = -1.27576e-20
DICPCG:  Solving for p, Initial residual = 0.00269365, Final residual = 9.86937e-07, No Iterations 165
time step continuity errors : sum local = 2.74433e-10, global = 8.47399e-20, cumulative = 7.19823e-20
ExecutionTime = 5.48 s  ClockTime = 6 s

Time = 0.04375

Courant Number mean: 0.212027 max: 0.963998
smoothSolver:  Solving for Ux, Initial residual = 0.00203755, Final residual = 8.20852e-06, No Iterations 10
smoothSolver:  Solving for Uy, Initial residual = 0.00289685, Final residual = 7.02875e-06, No Iterations 11
DICPCG:  Solving for p, Initial residual = 0.00320504, Final residual = 0.000152914, No Iterations 131
time step continuity errors : sum local = 4.25642e-08, global = 9.49204e-20, cumulative = 1.66903e-19
DICPCG:  Solving for p, Initial residual = 0.0027355, Final residual = 9.67016e-07, No Iterations 168
time step continuity errors : sum local = 2.69212e-10, global = 2.96504e-20, cumulative = 1.96553e-19
ExecutionTime = 5.55 s  ClockTime = 6 s

Time = 0.044375

Courant Number mean: 0.21291 max: 0.964186
smoothSolver:  Solving for Ux, Initial residual = 0.00200211, Final residual = 8.07383e-06, No Iterations 10
smoothSolver:  Solving for Uy, Initial residual = 0.00284273, Final residual = 6.89612e-06, No Iterations 11
DICPCG:  Solving for p, Initial residual = 0.00310701, Final residual = 0.000151341, No Iterations 131
time step continuity errors : sum local = 4.21703e-08, global = -6.28447e-21, cumulative = 1.90269e-19
DICPCG:  Solving for p, Initial residual = 0.00266629, Final residual = 8.91998e-07, No Iterations 165
time step continuity errors : sum local = 2.48048e-10, global = -6.318e-21, cumulative = 1.83951e-19
ExecutionTime = 5.62 s  ClockTime = 6 s

Time = 0.045

Courant Number mean: 0.213779 max: 0.964372
smoothSolver:  Solving for Ux, Initial residual = 0.00196641, Final residual = 7.93274e-06, No Iterations 10
smoothSolver:  Solving for Uy, Initial residual = 0.00279761, Final residual = 6.78804e-06, No Iterations 11
DICPCG:  Solving for p, Initial residual = 0.00302171, Final residual = 0.000136505, No Iterations 72
time step continuity errors : sum local = 4.52225e-08, global = 1.29476e-19, cumulative = 3.13427e-19
DICPCG:  Solving for p, Initial residual = 0.00257961, Final residual = 9.92193e-07, No Iterations 165
time step continuity errors : sum local = 2.76249e-10, global = -1.08263e-19, cumulative = 2.05164e-19
ExecutionTime = 5.69 s  ClockTime = 6 s

Time = 0.045625

Courant Number mean: 0.214637 max: 0.964553
smoothSolver:  Solving for Ux, Initial residual = 0.00193048, Final residual = 7.78574e-06, No Iterations 10
smoothSolver:  Solving for Uy, Initial residual = 0.00276411, Final residual = 6.7067e-06, No Iterations 11
DICPCG:  Solving for p, Initial residual = 0.00306606, Final residual = 0.000144386, No Iterations 131
time step continuity errors : sum local = 4.02196e-08, global = -4.58352e-20, cumulative = 1.59328e-19
DICPCG:  Solving for p, Initial residual = 0.00261784, Final residual = 9.14532e-07, No Iterations 168
time step continuity errors : sum local = 2.54801e-10, global = -9.18529e-20, cumulative = 6.74755e-20
ExecutionTime = 5.76 s  ClockTime = 6 s

Time = 0.04625

Courant Number mean: 0.215481 max: 0.964728
smoothSolver:  Solving for Ux, Initial residual = 0.0018977, Final residual = 7.66061e-06, No Iterations 10
smoothSolver:  Solving for Uy, Initial residual = 0.00271412, Final residual = 6.58434e-06, No Iterations 11
DICPCG:  Solving for p, Initial residual = 0.00297681, Final residual = 0.000147864, No Iterations 72
time step continuity errors : sum local = 4.98203e-08, global = 1.28699e-19, cumulative = 1.96175e-19
DICPCG:  Solving for p, Initial residual = 0.00253077, Final residual = 9.57596e-07, No Iterations 165
time step continuity errors : sum local = 2.66756e-10, global = 6.44442e-20, cumulative = 2.60619e-19
ExecutionTime = 5.83 s  ClockTime = 6 s

Time = 0.046875

Courant Number mean: 0.216314 max: 0.964902
smoothSolver:  Solving for Ux, Initial residual = 0.00186341, Final residual = 7.51918e-06, No Iterations 10
smoothSolver:  Solving for Uy, Initial residual = 0.00268419, Final residual = 6.51244e-06, No Iterations 11
DICPCG:  Solving for p, Initial residual = 0.00302935, Final residual = 0.000141211, No Iterations 131
time step continuity errors : sum local = 3.93567e-08, global = -2.80836e-20, cumulative = 2.32535e-19
DICPCG:  Solving for p, Initial residual = 0.00258353, Final residual = 9.71249e-07, No Iterations 168
time step continuity errors : sum local = 2.7083e-10, global = 1.01262e-20, cumulative = 2.42661e-19
ExecutionTime = 5.9 s  ClockTime = 6 s

Time = 0.0475

Courant Number mean: 0.217134 max: 0.96507
smoothSolver:  Solving for Ux, Initial residual = 0.00183243, Final residual = 7.40239e-06, No Iterations 10
smoothSolver:  Solving for Uy, Initial residual = 0.00263412, Final residual = 6.39001e-06, No Iterations 11
DICPCG:  Solving for p, Initial residual = 0.00290581, Final residual = 0.000138491, No Iterations 131
time step continuity errors : sum local = 3.86355e-08, global = -2.82823e-20, cumulative = 2.14379e-19
DICPCG:  Solving for p, Initial residual = 0.00248659, Final residual = 8.71169e-07, No Iterations 165
time step continuity errors : sum local = 2.42729e-10, global = 2.1319e-19, cumulative = 4.27569e-19
ExecutionTime = 5.97 s  ClockTime = 6 s

Time = 0.048125

Courant Number mean: 0.217942 max: 0.965236
smoothSolver:  Solving for Ux, Initial residual = 0.00180108, Final residual = 7.27877e-06, No Iterations 10
smoothSolver:  Solving for Uy, Initial residual = 0.00259396, Final residual = 6.29405e-06, No Iterations 11
DICPCG:  Solving for p, Initial residual = 0.00281894, Final residual = 0.000123996, No Iterations 72
time step continuity errors : sum local = 4.11112e-08, global = -6.58864e-20, cumulative = 3.61682e-19
DICPCG:  Solving for p, Initial residual = 0.00240827, Final residual = 9.41203e-07, No Iterations 166
time step continuity errors : sum local = 2.62414e-10, global = -2.81002e-19, cumulative = 8.06805e-20
ExecutionTime = 6.04 s  ClockTime = 6 s

Time = 0.04875

Courant Number mean: 0.218738 max: 0.965399
smoothSolver:  Solving for Ux, Initial residual = 0.00176966, Final residual = 7.15016e-06, No Iterations 10
smoothSolver:  Solving for Uy, Initial residual = 0.00256447, Final residual = 6.2223e-06, No Iterations 11
DICPCG:  Solving for p, Initial residual = 0.00285733, Final residual = 0.000130325, No Iterations 131
time step continuity errors : sum local = 3.63436e-08, global = 1.70615e-19, cumulative = 2.51296e-19
DICPCG:  Solving for p, Initial residual = 0.00244024, Final residual = 9.7389e-07, No Iterations 167
time step continuity errors : sum local = 2.71622e-10, global = -1.16792e-19, cumulative = 1.34503e-19
ExecutionTime = 6.11 s  ClockTime = 6 s

Time = 0.049375

Courant Number mean: 0.219523 max: 0.965557
smoothSolver:  Solving for Ux, Initial residual = 0.00174081, Final residual = 7.03974e-06, No Iterations 10
smoothSolver:  Solving for Uy, Initial residual = 0.00252027, Final residual = 6.11435e-06, No Iterations 11
DICPCG:  Solving for p, Initial residual = 0.00277836, Final residual = 0.000134049, No Iterations 72
time step continuity errors : sum local = 4.52178e-08, global = -1.64191e-20, cumulative = 1.18084e-19
DICPCG:  Solving for p, Initial residual = 0.00236447, Final residual = 9.20269e-07, No Iterations 166
time step continuity errors : sum local = 2.56656e-10, global = -7.39847e-20, cumulative = 4.40997e-20
ExecutionTime = 6.19 s  ClockTime = 7 s

Time = 0.05

Courant Number mean: 0.220296 max: 0.965713
smoothSolver:  Solving for Ux, Initial residual = 0.00171091, Final residual = 6.91573e-06, No Iterations 10
smoothSolver:  Solving for Uy, Initial residual = 0.00249364, Final residual = 6.05029e-06, No Iterations 11
DICPCG:  Solving for p, Initial residual = 0.00282473, Final residual = 0.000127322, No Iterations 131
time step continuity errors : sum local = 3.55267e-08, global = -1.63409e-19, cumulative = -1.1931e-19
DICPCG:  Solving for p, Initial residual = 0.00241024, Final residual = 9.10172e-07, No Iterations 168
time step continuity errors : sum local = 2.54104e-10, global = 1.22205e-19, cumulative = 2.89555e-21
ExecutionTime = 6.29 s  ClockTime = 7 s

Time = 0.050625

Courant Number mean: 0.221058 max: 0.965865
smoothSolver:  Solving for Ux, Initial residual = 0.00168358, Final residual = 6.81188e-06, No Iterations 10
smoothSolver:  Solving for Uy, Initial residual = 0.00244937, Final residual = 5.94213e-06, No Iterations 11
DICPCG:  Solving for p, Initial residual = 0.00271467, Final residual = 0.00013247, No Iterations 72
time step continuity errors : sum local = 4.47768e-08, global = -4.71159e-20, cumulative = -4.42203e-20
DICPCG:  Solving for p, Initial residual = 0.002308, Final residual = 9.27575e-07, No Iterations 166
time step continuity errors : sum local = 2.58803e-10, global = -8.73362e-20, cumulative = -1.31557e-19
ExecutionTime = 6.35 s  ClockTime = 7 s

Time = 0.05125

Courant Number mean: 0.221811 max: 0.966015
smoothSolver:  Solving for Ux, Initial residual = 0.00165509, Final residual = 6.69345e-06, No Iterations 10
smoothSolver:  Solving for Uy, Initial residual = 0.00242398, Final residual = 5.88117e-06, No Iterations 11
DICPCG:  Solving for p, Initial residual = 0.00275662, Final residual = 0.000122768, No Iterations 131
time step continuity errors : sum local = 3.42711e-08, global = -9.83586e-20, cumulative = -2.29915e-19
DICPCG:  Solving for p, Initial residual = 0.00235198, Final residual = 8.99209e-07, No Iterations 168
time step continuity errors : sum local = 2.51167e-10, global = 1.13062e-20, cumulative = -2.18609e-19
ExecutionTime = 6.43 s  ClockTime = 7 s

Time = 0.051875

Courant Number mean: 0.222555 max: 0.966161
smoothSolver:  Solving for Ux, Initial residual = 0.00162899, Final residual = 6.59425e-06, No Iterations 10
smoothSolver:  Solving for Uy, Initial residual = 0.00238136, Final residual = 9.98669e-06, No Iterations 10
DICPCG:  Solving for p, Initial residual = 0.00263322, Final residual = 0.000125306, No Iterations 72
time step continuity errors : sum local = 4.27232e-08, global = -4.53625e-20, cumulative = -2.63971e-19
DICPCG:  Solving for p, Initial residual = 0.00223597, Final residual = 8.98134e-07, No Iterations 167
time step continuity errors : sum local = 2.50546e-10, global = -5.65663e-20, cumulative = -3.20538e-19
ExecutionTime = 6.49 s  ClockTime = 7 s

Time = 0.0525

Courant Number mean: 0.223291 max: 0.966305
smoothSolver:  Solving for Ux, Initial residual = 0.0016017, Final residual = 6.48109e-06, No Iterations 10
smoothSolver:  Solving for Uy, Initial residual = 0.00235808, Final residual = 9.88965e-06, No Iterations 10
DICPCG:  Solving for p, Initial residual = 0.00267264, Final residual = 0.000117059, No Iterations 131
time step continuity errors : sum local = 3.26948e-08, global = 4.14324e-20, cumulative = -2.79105e-19
DICPCG:  Solving for p, Initial residual = 0.0022787, Final residual = 9.82088e-07, No Iterations 167
time step continuity errors : sum local = 2.74417e-10, global = -7.86954e-20, cumulative = -3.57801e-19
ExecutionTime = 6.56 s  ClockTime = 7 s

Time = 0.053125

Courant Number mean: 0.224017 max: 0.966445
smoothSolver:  Solving for Ux, Initial residual = 0.00157682, Final residual = 6.38686e-06, No Iterations 10
smoothSolver:  Solving for Uy, Initial residual = 0.00231644, Final residual = 9.71468e-06, No Iterations 10
DICPCG:  Solving for p, Initial residual = 0.00256315, Final residual = 0.000121247, No Iterations 72
time step continuity errors : sum local = 4.13614e-08, global = 9.21774e-20, cumulative = -2.65623e-19
DICPCG:  Solving for p, Initial residual = 0.00217677, Final residual = 9.93909e-07, No Iterations 166
time step continuity errors : sum local = 2.77505e-10, global = 7.25156e-20, cumulative = -1.93108e-19
ExecutionTime = 6.62 s  ClockTime = 7 s

Time = 0.05375

Courant Number mean: 0.224734 max: 0.966583
smoothSolver:  Solving for Ux, Initial residual = 0.00155089, Final residual = 6.27917e-06, No Iterations 10
smoothSolver:  Solving for Uy, Initial residual = 0.00229393, Final residual = 9.62067e-06, No Iterations 10
DICPCG:  Solving for p, Initial residual = 0.00260465, Final residual = 0.000112432, No Iterations 131
time step continuity errors : sum local = 3.1415e-08, global = 9.72254e-20, cumulative = -9.58823e-20
DICPCG:  Solving for p, Initial residual = 0.00222065, Final residual = 8.8467e-07, No Iterations 168
time step continuity errors : sum local = 2.47294e-10, global = -1.27689e-19, cumulative = -2.23571e-19
ExecutionTime = 6.7 s  ClockTime = 7 s

Time = 0.054375

Courant Number mean: 0.225443 max: 0.966718
smoothSolver:  Solving for Ux, Initial residual = 0.00152714, Final residual = 6.18893e-06, No Iterations 10
smoothSolver:  Solving for Uy, Initial residual = 0.00225407, Final residual = 9.45328e-06, No Iterations 10
DICPCG:  Solving for p, Initial residual = 0.00249846, Final residual = 0.000117053, No Iterations 72
time step continuity errors : sum local = 3.99429e-08, global = -2.35902e-20, cumulative = -2.47161e-19
DICPCG:  Solving for p, Initial residual = 0.0021221, Final residual = 9.58738e-07, No Iterations 166
time step continuity errors : sum local = 2.678e-10, global = 2.27963e-19, cumulative = -1.91978e-20
ExecutionTime = 6.76 s  ClockTime = 7 s

Time = 0.055

Courant Number mean: 0.226141 max: 0.966851
smoothSolver:  Solving for Ux, Initial residual = 0.00150243, Final residual = 6.08598e-06, No Iterations 10
smoothSolver:  Solving for Uy, Initial residual = 0.00223242, Final residual = 9.36269e-06, No Iterations 10
DICPCG:  Solving for p, Initial residual = 0.00253891, Final residual = 0.000107903, No Iterations 131
time step continuity errors : sum local = 3.01607e-08, global = -1.21213e-20, cumulative = -3.13192e-20
DICPCG:  Solving for p, Initial residual = 0.00216487, Final residual = 8.63775e-07, No Iterations 168
time step continuity errors : sum local = 2.41546e-10, global = 1.33811e-20, cumulative = -1.79381e-20
ExecutionTime = 6.84 s  ClockTime = 7 s

Time = 0.055625

Courant Number mean: 0.226831 max: 0.966981
smoothSolver:  Solving for Ux, Initial residual = 0.00147968, Final residual = 5.99937e-06, No Iterations 10
smoothSolver:  Solving for Uy, Initial residual = 0.00219423, Final residual = 9.20254e-06, No Iterations 10
DICPCG:  Solving for p, Initial residual = 0.00243645, Final residual = 0.000111055, No Iterations 72
time step continuity errors : sum local = 3.80254e-08, global = -1.2495e-19, cumulative = -1.42888e-19
DICPCG:  Solving for p, Initial residual = 0.00207003, Final residual = 9.20205e-07, No Iterations 166
time step continuity errors : sum local = 2.5716e-10, global = 3.8603e-19, cumulative = 2.43142e-19
ExecutionTime = 6.9 s  ClockTime = 7 s

Time = 0.05625

Courant Number mean: 0.227511 max: 0.967109
smoothSolver:  Solving for Ux, Initial residual = 0.00145611, Final residual = 5.90079e-06, No Iterations 10
smoothSolver:  Solving for Uy, Initial residual = 0.00217337, Final residual = 9.11518e-06, No Iterations 10
DICPCG:  Solving for p, Initial residual = 0.0024757, Final residual = 0.000103064, No Iterations 131
time step continuity errors : sum local = 2.88193e-08, global = -1.40793e-19, cumulative = 1.02349e-19
DICPCG:  Solving for p, Initial residual = 0.0021106, Final residual = 9.93527e-07, No Iterations 167
time step continuity errors : sum local = 2.77886e-10, global = -5.83516e-20, cumulative = 4.39969e-20
ExecutionTime = 6.97 s  ClockTime = 7 s

Time = 0.056875

Courant Number mean: 0.228182 max: 0.967234
smoothSolver:  Solving for Ux, Initial residual = 0.00143428, Final residual = 5.81752e-06, No Iterations 10
smoothSolver:  Solving for Uy, Initial residual = 0.00213678, Final residual = 8.96183e-06, No Iterations 10
DICPCG:  Solving for p, Initial residual = 0.00237651, Final residual = 0.00010791, No Iterations 72
time step continuity errors : sum local = 3.69134e-08, global = -7.11261e-20, cumulative = -2.71292e-20
DICPCG:  Solving for p, Initial residual = 0.00201938, Final residual = 8.84787e-07, No Iterations 166
time step continuity errors : sum local = 2.47385e-10, global = -1.18345e-19, cumulative = -1.45474e-19
ExecutionTime = 7.03 s  ClockTime = 7 s

Time = 0.0575

Courant Number mean: 0.228845 max: 0.967358
smoothSolver:  Solving for Ux, Initial residual = 0.0014117, Final residual = 9.92478e-06, No Iterations 9
smoothSolver:  Solving for Uy, Initial residual = 0.00211668, Final residual = 8.8775e-06, No Iterations 10
DICPCG:  Solving for p, Initial residual = 0.00242036, Final residual = 0.000100214, No Iterations 131
time step continuity errors : sum local = 2.80228e-08, global = -4.38368e-20, cumulative = -1.89311e-19
DICPCG:  Solving for p, Initial residual = 0.00206555, Final residual = 9.84494e-07, No Iterations 167
time step continuity errors : sum local = 2.75488e-10, global = 4.52118e-20, cumulative = -1.44099e-19
ExecutionTime = 7.11 s  ClockTime = 8 s

Time = 0.058125

Courant Number mean: 0.229498 max: 0.967478
smoothSolver:  Solving for Ux, Initial residual = 0.00139078, Final residual = 9.78633e-06, No Iterations 9
smoothSolver:  Solving for Uy, Initial residual = 0.00208151, Final residual = 8.72992e-06, No Iterations 10
DICPCG:  Solving for p, Initial residual = 0.00232296, Final residual = 0.000108291, No Iterations 72
time step continuity errors : sum local = 3.649e-08, global = 2.23783e-19, cumulative = 7.96842e-20
DICPCG:  Solving for p, Initial residual = 0.00197559, Final residual = 9.29201e-07, No Iterations 165
time step continuity errors : sum local = 2.60122e-10, global = -3.72459e-20, cumulative = 4.24382e-20
ExecutionTime = 7.17 s  ClockTime = 8 s

Time = 0.05875

Courant Number mean: 0.230143 max: 0.967597
smoothSolver:  Solving for Ux, Initial residual = 0.00136939, Final residual = 9.63197e-06, No Iterations 9
smoothSolver:  Solving for Uy, Initial residual = 0.00206065, Final residual = 8.64223e-06, No Iterations 10
DICPCG:  Solving for p, Initial residual = 0.00235722, Final residual = 9.6364e-05, No Iterations 131
time step continuity errors : sum local = 2.69574e-08, global = 2.95755e-20, cumulative = 7.20137e-20
DICPCG:  Solving for p, Initial residual = 0.00201146, Final residual = 9.59018e-07, No Iterations 167
time step continuity errors : sum local = 2.68435e-10, global = -2.7057e-20, cumulative = 4.49567e-20
ExecutionTime = 7.24 s  ClockTime = 8 s

Time = 0.059375

Courant Number mean: 0.230779 max: 0.967713
smoothSolver:  Solving for Ux, Initial residual = 0.00134924, Final residual = 9.49784e-06, No Iterations 9
smoothSolver:  Solving for Uy, Initial residual = 0.00202827, Final residual = 8.50677e-06, No Iterations 10
DICPCG:  Solving for p, Initial residual = 0.00226741, Final residual = 0.000103105, No Iterations 72
time step continuity errors : sum local = 3.47971e-08, global = 1.13456e-21, cumulative = 4.60913e-20
DICPCG:  Solving for p, Initial residual = 0.00192806, Final residual = 9.26712e-07, No Iterations 165
time step continuity errors : sum local = 2.5956e-10, global = -3.12304e-20, cumulative = 1.48609e-20
ExecutionTime = 7.31 s  ClockTime = 8 s

Time = 0.06

Courant Number mean: 0.231406 max: 0.967828
smoothSolver:  Solving for Ux, Initial residual = 0.00132878, Final residual = 9.35007e-06, No Iterations 9
smoothSolver:  Solving for Uy, Initial residual = 0.0020082, Final residual = 8.4223e-06, No Iterations 10
DICPCG:  Solving for p, Initial residual = 0.00229946, Final residual = 0.000114966, No Iterations 130
time step continuity errors : sum local = 3.21573e-08, global = 6.3021e-20, cumulative = 7.78819e-20
DICPCG:  Solving for p, Initial residual = 0.00197197, Final residual = 9.54077e-07, No Iterations 167
time step continuity errors : sum local = 2.67106e-10, global = 5.77179e-20, cumulative = 1.356e-19
ExecutionTime = 7.38 s  ClockTime = 8 s

Time = 0.060625

Courant Number mean: 0.232026 max: 0.96794
smoothSolver:  Solving for Ux, Initial residual = 0.00130941, Final residual = 9.2208e-06, No Iterations 9
smoothSolver:  Solving for Uy, Initial residual = 0.00197726, Final residual = 8.2928e-06, No Iterations 10
DICPCG:  Solving for p, Initial residual = 0.00222551, Final residual = 0.000101389, No Iterations 72
time step continuity errors : sum local = 3.4125e-08, global = 1.16759e-19, cumulative = 2.52358e-19
DICPCG:  Solving for p, Initial residual = 0.00189194, Final residual = 9.23538e-07, No Iterations 165
time step continuity errors : sum local = 2.58769e-10, global = 1.41023e-19, cumulative = 3.93382e-19
ExecutionTime = 7.44 s  ClockTime = 8 s

Time = 0.06125

Courant Number mean: 0.232641 max: 0.968051
smoothSolver:  Solving for Ux, Initial residual = 0.00128982, Final residual = 9.0791e-06, No Iterations 9
smoothSolver:  Solving for Uy, Initial residual = 0.0019577, Final residual = 8.21053e-06, No Iterations 10
DICPCG:  Solving for p, Initial residual = 0.00224481, Final residual = 0.000110966, No Iterations 130
time step continuity errors : sum local = 3.10491e-08, global = -1.09871e-19, cumulative = 2.83511e-19
DICPCG:  Solving for p, Initial residual = 0.00192377, Final residual = 9.55075e-07, No Iterations 167
time step continuity errors : sum local = 2.67469e-10, global = -8.17778e-20, cumulative = 2.01733e-19
ExecutionTime = 7.52 s  ClockTime = 8 s

Time = 0.061875

Courant Number mean: 0.233249 max: 0.968159
smoothSolver:  Solving for Ux, Initial residual = 0.00127118, Final residual = 8.95444e-06, No Iterations 9
smoothSolver:  Solving for Uy, Initial residual = 0.00192794, Final residual = 8.08611e-06, No Iterations 10
DICPCG:  Solving for p, Initial residual = 0.0021735, Final residual = 0.000108491, No Iterations 71
time step continuity errors : sum local = 3.59564e-08, global = -1.40352e-19, cumulative = 6.13811e-20
DICPCG:  Solving for p, Initial residual = 0.00185331, Final residual = 9.23778e-07, No Iterations 165
time step continuity errors : sum local = 2.58934e-10, global = 1.30973e-20, cumulative = 7.44784e-20
ExecutionTime = 7.58 s  ClockTime = 8 s

Time = 0.0625

Courant Number mean: 0.233851 max: 0.968266
smoothSolver:  Solving for Ux, Initial residual = 0.00125238, Final residual = 8.81824e-06, No Iterations 9
smoothSolver:  Solving for Uy, Initial residual = 0.00190889, Final residual = 8.00596e-06, No Iterations 10
DICPCG:  Solving for p, Initial residual = 0.00219951, Final residual = 0.00010816, No Iterations 130
time step continuity errors : sum local = 3.02752e-08, global = 1.04151e-19, cumulative = 1.78629e-19
DICPCG:  Solving for p, Initial residual = 0.00188463, Final residual = 9.51195e-07, No Iterations 167
time step continuity errors : sum local = 2.66474e-10, global = -1.10434e-20, cumulative = 1.67586e-19
ExecutionTime = 7.69 s  ClockTime = 8 s

Time = 0.063125

Courant Number mean: 0.234445 max: 0.96837
smoothSolver:  Solving for Ux, Initial residual = 0.00123439, Final residual = 8.69766e-06, No Iterations 9
smoothSolver:  Solving for Uy, Initial residual = 0.00188036, Final residual = 7.88679e-06, No Iterations 10
DICPCG:  Solving for p, Initial residual = 0.00212346, Final residual = 0.000104761, No Iterations 71
time step continuity errors : sum local = 3.47412e-08, global = -3.56375e-20, cumulative = 1.31949e-19
DICPCG:  Solving for p, Initial residual = 0.0018097, Final residual = 9.32034e-07, No Iterations 165
time step continuity errors : sum local = 2.6134e-10, global = -1.53682e-20, cumulative = 1.1658e-19
ExecutionTime = 7.75 s  ClockTime = 8 s

Time = 0.06375

Courant Number mean: 0.235033 max: 0.968473
smoothSolver:  Solving for Ux, Initial residual = 0.00121633, Final residual = 8.56699e-06, No Iterations 9
smoothSolver:  Solving for Uy, Initial residual = 0.00186191, Final residual = 7.80912e-06, No Iterations 10
DICPCG:  Solving for p, Initial residual = 0.00214984, Final residual = 0.000104847, No Iterations 130
time step continuity errors : sum local = 2.93587e-08, global = -1.74054e-19, cumulative = -5.74736e-20
DICPCG:  Solving for p, Initial residual = 0.00184228, Final residual = 9.39441e-07, No Iterations 167
time step continuity errors : sum local = 2.63254e-10, global = -6.41676e-20, cumulative = -1.21641e-19
ExecutionTime = 7.83 s  ClockTime = 8 s

Time = 0.064375

Courant Number mean: 0.235613 max: 0.968574
smoothSolver:  Solving for Ux, Initial residual = 0.00119901, Final residual = 8.45121e-06, No Iterations 9
smoothSolver:  Solving for Uy, Initial residual = 0.00183442, Final residual = 7.69432e-06, No Iterations 10
DICPCG:  Solving for p, Initial residual = 0.0020745, Final residual = 0.00010139, No Iterations 71
time step continuity errors : sum local = 3.3633e-08, global = -7.67062e-20, cumulative = -1.98347e-19
DICPCG:  Solving for p, Initial residual = 0.00176866, Final residual = 9.04723e-07, No Iterations 165
time step continuity errors : sum local = 2.53739e-10, global = -1.64409e-19, cumulative = -3.62757e-19
ExecutionTime = 7.89 s  ClockTime = 8 s

Time = 0.065

Courant Number mean: 0.236186 max: 0.968674
smoothSolver:  Solving for Ux, Initial residual = 0.00118174, Final residual = 8.32593e-06, No Iterations 9
smoothSolver:  Solving for Uy, Initial residual = 0.00181654, Final residual = 7.61896e-06, No Iterations 10
DICPCG:  Solving for p, Initial residual = 0.00210078, Final residual = 0.000102481, No Iterations 130
time step continuity errors : sum local = 2.87066e-08, global = -1.82201e-19, cumulative = -5.44958e-19
DICPCG:  Solving for p, Initial residual = 0.00180072, Final residual = 8.98675e-07, No Iterations 167
time step continuity errors : sum local = 2.51927e-10, global = 1.13485e-19, cumulative = -4.31473e-19
ExecutionTime = 7.96 s  ClockTime = 8 s

Time = 0.065625

Courant Number mean: 0.236753 max: 0.968771
smoothSolver:  Solving for Ux, Initial residual = 0.00116507, Final residual = 8.21429e-06, No Iterations 9
smoothSolver:  Solving for Uy, Initial residual = 0.00179004, Final residual = 7.50826e-06, No Iterations 10
DICPCG:  Solving for p, Initial residual = 0.00202697, Final residual = 9.78794e-05, No Iterations 71
time step continuity errors : sum local = 3.24936e-08, global = 7.1496e-20, cumulative = -3.59977e-19
DICPCG:  Solving for p, Initial residual = 0.0017289, Final residual = 9.32612e-07, No Iterations 165
time step continuity errors : sum local = 2.61647e-10, global = 9.82053e-21, cumulative = -3.50157e-19
ExecutionTime = 8.02 s  ClockTime = 8 s

Time = 0.06625

Courant Number mean: 0.237314 max: 0.968868
smoothSolver:  Solving for Ux, Initial residual = 0.00114848, Final residual = 8.09377e-06, No Iterations 9
smoothSolver:  Solving for Uy, Initial residual = 0.00177269, Final residual = 7.4351e-06, No Iterations 10
DICPCG:  Solving for p, Initial residual = 0.00205334, Final residual = 0.000101225, No Iterations 130
time step continuity errors : sum local = 2.83657e-08, global = 4.92498e-20, cumulative = -3.00907e-19
DICPCG:  Solving for p, Initial residual = 0.00176018, Final residual = 8.96638e-07, No Iterations 167
time step continuity errors : sum local = 2.51345e-10, global = -1.38626e-19, cumulative = -4.39533e-19
ExecutionTime = 8.1 s  ClockTime = 8 s

Time = 0.066875

Courant Number mean: 0.237867 max: 0.968962
smoothSolver:  Solving for Ux, Initial residual = 0.0011324, Final residual = 7.98595e-06, No Iterations 9
smoothSolver:  Solving for Uy, Initial residual = 0.0017471, Final residual = 7.32828e-06, No Iterations 10
DICPCG:  Solving for p, Initial residual = 0.00198126, Final residual = 9.51504e-05, No Iterations 71
time step continuity errors : sum local = 3.158e-08, global = -3.52037e-20, cumulative = -4.74737e-19
DICPCG:  Solving for p, Initial residual = 0.00169037, Final residual = 9.31855e-07, No Iterations 165
time step continuity errors : sum local = 2.61488e-10, global = 1.40612e-19, cumulative = -3.34125e-19
ExecutionTime = 8.16 s  ClockTime = 9 s

Time = 0.0675

Courant Number mean: 0.238414 max: 0.969055
smoothSolver:  Solving for Ux, Initial residual = 0.00111644, Final residual = 7.86988e-06, No Iterations 9
smoothSolver:  Solving for Uy, Initial residual = 0.00173026, Final residual = 7.25721e-06, No Iterations 10
DICPCG:  Solving for p, Initial residual = 0.00200724, Final residual = 9.91942e-05, No Iterations 130
time step continuity errors : sum local = 2.78065e-08, global = -1.8349e-19, cumulative = -5.17615e-19
DICPCG:  Solving for p, Initial residual = 0.00172178, Final residual = 8.71161e-07, No Iterations 167
time step continuity errors : sum local = 2.44239e-10, global = 3.12985e-20, cumulative = -4.86317e-19
ExecutionTime = 8.23 s  ClockTime = 9 s

Time = 0.068125

Courant Number mean: 0.238954 max: 0.969146
smoothSolver:  Solving for Ux, Initial residual = 0.00110092, Final residual = 7.76561e-06, No Iterations 9
smoothSolver:  Solving for Uy, Initial residual = 0.00170553, Final residual = 7.15405e-06, No Iterations 10
[...]
DICPCG:  Solving for p, Initial residual = 1.52707e-06, Final residual = 8.87047e-07, No Iterations 11
time step continuity errors : sum local = 2.85388e-10, global = -4.96521e-20, cumulative = 9.86341e-18
ExecutionTime = 40.04 s  ClockTime = 41 s

Time = 0.48375

Courant Number mean: 0.288989 max: 0.976189
smoothSolver:  Solving for Ux, Initial residual = 6.10771e-06, Final residual = 6.10771e-06, No Iterations 0
smoothSolver:  Solving for Uy, Initial residual = 9.40484e-06, Final residual = 9.40484e-06, No Iterations 0
DICPCG:  Solving for p, Initial residual = 1.43792e-06, Final residual = 9.23846e-07, No Iterations 7
time step continuity errors : sum local = 2.95667e-10, global = -9.20198e-21, cumulative = 9.85421e-18
DICPCG:  Solving for p, Initial residual = 1.47617e-06, Final residual = 9.8e-07, No Iterations 14
time step continuity errors : sum local = 3.12647e-10, global = -7.09145e-21, cumulative = 9.84712e-18
ExecutionTime = 40.05 s  ClockTime = 41 s

Time = 0.484375

Courant Number mean: 0.288989 max: 0.976189
smoothSolver:  Solving for Ux, Initial residual = 6.09161e-06, Final residual = 6.09161e-06, No Iterations 0
smoothSolver:  Solving for Uy, Initial residual = 9.3852e-06, Final residual = 9.3852e-06, No Iterations 0
DICPCG:  Solving for p, Initial residual = 1.63346e-06, Final residual = 9.49121e-07, No Iterations 6
time step continuity errors : sum local = 3.0368e-10, global = 3.1076e-20, cumulative = 9.87819e-18
DICPCG:  Solving for p, Initial residual = 1.52133e-06, Final residual = 8.75617e-07, No Iterations 4
time step continuity errors : sum local = 2.8273e-10, global = 5.8872e-20, cumulative = 9.93707e-18
ExecutionTime = 40.06 s  ClockTime = 41 s

Time = 0.485

Courant Number mean: 0.28899 max: 0.976189
smoothSolver:  Solving for Ux, Initial residual = 6.07555e-06, Final residual = 6.07555e-06, No Iterations 0
smoothSolver:  Solving for Uy, Initial residual = 9.36402e-06, Final residual = 9.36402e-06, No Iterations 0
DICPCG:  Solving for p, Initial residual = 1.7492e-06, Final residual = 7.09051e-07, No Iterations 20
time step continuity errors : sum local = 2.35275e-10, global = 1.11825e-19, cumulative = 1.00489e-17
DICPCG:  Solving for p, Initial residual = 1.15487e-06, Final residual = 8.75832e-07, No Iterations 7
time step continuity errors : sum local = 2.83225e-10, global = 7.17492e-20, cumulative = 1.01206e-17
ExecutionTime = 40.07 s  ClockTime = 41 s

Time = 0.485625

Courant Number mean: 0.288991 max: 0.976189
smoothSolver:  Solving for Ux, Initial residual = 6.06062e-06, Final residual = 6.06062e-06, No Iterations 0
smoothSolver:  Solving for Uy, Initial residual = 9.343e-06, Final residual = 9.343e-06, No Iterations 0
DICPCG:  Solving for p, Initial residual = 1.45133e-06, Final residual = 9.74288e-07, No Iterations 3
time step continuity errors : sum local = 3.11689e-10, global = -2.71918e-19, cumulative = 9.84872e-18
DICPCG:  Solving for p, Initial residual = 1.58346e-06, Final residual = 8.53268e-07, No Iterations 2
time step continuity errors : sum local = 2.77325e-10, global = -1.84806e-19, cumulative = 9.66391e-18
ExecutionTime = 40.07 s  ClockTime = 41 s

Time = 0.48625

Courant Number mean: 0.288992 max: 0.976189
smoothSolver:  Solving for Ux, Initial residual = 6.04461e-06, Final residual = 6.04461e-06, No Iterations 0
smoothSolver:  Solving for Uy, Initial residual = 9.32914e-06, Final residual = 9.32914e-06, No Iterations 0
DICPCG:  Solving for p, Initial residual = 1.86866e-06, Final residual = 9.06684e-07, No Iterations 10
time step continuity errors : sum local = 2.92415e-10, global = -1.64849e-19, cumulative = 9.49907e-18
DICPCG:  Solving for p, Initial residual = 1.42816e-06, Final residual = 9.55631e-07, No Iterations 9
time step continuity errors : sum local = 3.06535e-10, global = -8.84837e-21, cumulative = 9.49022e-18
ExecutionTime = 40.08 s  ClockTime = 41 s

Time = 0.486875

Courant Number mean: 0.288993 max: 0.976189
smoothSolver:  Solving for Ux, Initial residual = 6.02989e-06, Final residual = 6.02989e-06, No Iterations 0
smoothSolver:  Solving for Uy, Initial residual = 9.30758e-06, Final residual = 9.30758e-06, No Iterations 0
DICPCG:  Solving for p, Initial residual = 1.78393e-06, Final residual = 9.48487e-07, No Iterations 13
time step continuity errors : sum local = 3.04459e-10, global = -3.5557e-19, cumulative = 9.13465e-18
DICPCG:  Solving for p, Initial residual = 1.45143e-06, Final residual = 7.9673e-07, No Iterations 7
time step continuity errors : sum local = 2.61547e-10, global = -1.96711e-19, cumulative = 8.93794e-18
ExecutionTime = 40.09 s  ClockTime = 41 s

Time = 0.4875

Courant Number mean: 0.288993 max: 0.976189
smoothSolver:  Solving for Ux, Initial residual = 6.01501e-06, Final residual = 6.01501e-06, No Iterations 0
smoothSolver:  Solving for Uy, Initial residual = 9.28739e-06, Final residual = 9.28739e-06, No Iterations 0
DICPCG:  Solving for p, Initial residual = 1.53115e-06, Final residual = 9.91426e-07, No Iterations 10
time step continuity errors : sum local = 3.17317e-10, global = 2.44418e-20, cumulative = 8.96238e-18
DICPCG:  Solving for p, Initial residual = 1.62073e-06, Final residual = 9.19633e-07, No Iterations 6
time step continuity errors : sum local = 2.96965e-10, global = -6.16694e-21, cumulative = 8.95621e-18
ExecutionTime = 40.14 s  ClockTime = 41 s

Time = 0.488125

Courant Number mean: 0.288994 max: 0.976189
smoothSolver:  Solving for Ux, Initial residual = 5.99855e-06, Final residual = 5.99855e-06, No Iterations 0
smoothSolver:  Solving for Uy, Initial residual = 9.26421e-06, Final residual = 9.26421e-06, No Iterations 0
DICPCG:  Solving for p, Initial residual = 1.62665e-06, Final residual = 9.44372e-07, No Iterations 15
time step continuity errors : sum local = 3.03781e-10, global = -9.59149e-20, cumulative = 8.8603e-18
DICPCG:  Solving for p, Initial residual = 1.45689e-06, Final residual = 9.08228e-07, No Iterations 3
time step continuity errors : sum local = 2.93407e-10, global = 1.59338e-19, cumulative = 9.01963e-18
ExecutionTime = 40.15 s  ClockTime = 41 s

Time = 0.48875

Courant Number mean: 0.288995 max: 0.97619
smoothSolver:  Solving for Ux, Initial residual = 5.9842e-06, Final residual = 5.9842e-06, No Iterations 0
smoothSolver:  Solving for Uy, Initial residual = 9.24612e-06, Final residual = 9.24612e-06, No Iterations 0
DICPCG:  Solving for p, Initial residual = 1.55078e-06, Final residual = 7.26104e-07, No Iterations 2
time step continuity errors : sum local = 2.41676e-10, global = 7.29781e-20, cumulative = 9.09261e-18
DICPCG:  Solving for p, Initial residual = 1.39354e-06, Final residual = 8.30694e-07, No Iterations 5
time step continuity errors : sum local = 2.71765e-10, global = 1.31547e-19, cumulative = 9.22416e-18
ExecutionTime = 40.16 s  ClockTime = 41 s

Time = 0.489375

Courant Number mean: 0.288996 max: 0.97619
smoothSolver:  Solving for Ux, Initial residual = 5.96816e-06, Final residual = 5.96816e-06, No Iterations 0
smoothSolver:  Solving for Uy, Initial residual = 9.22425e-06, Final residual = 9.22425e-06, No Iterations 0
DICPCG:  Solving for p, Initial residual = 1.47979e-06, Final residual = 9.74119e-07, No Iterations 11
time step continuity errors : sum local = 3.13311e-10, global = 1.14913e-19, cumulative = 9.33907e-18
DICPCG:  Solving for p, Initial residual = 1.49212e-06, Final residual = 9.71255e-07, No Iterations 11
time step continuity errors : sum local = 3.12341e-10, global = -9.0201e-20, cumulative = 9.24887e-18
ExecutionTime = 40.17 s  ClockTime = 41 s

Time = 0.49

Courant Number mean: 0.288997 max: 0.97619
smoothSolver:  Solving for Ux, Initial residual = 5.95366e-06, Final residual = 5.95366e-06, No Iterations 0
smoothSolver:  Solving for Uy, Initial residual = 9.20273e-06, Final residual = 9.20273e-06, No Iterations 0
DICPCG:  Solving for p, Initial residual = 1.63275e-06, Final residual = 9.7343e-07, No Iterations 8
time step continuity errors : sum local = 3.13767e-10, global = 1.15153e-19, cumulative = 9.36402e-18
DICPCG:  Solving for p, Initial residual = 1.53194e-06, Final residual = 8.61515e-07, No Iterations 8
time step continuity errors : sum local = 2.81663e-10, global = 1.56567e-19, cumulative = 9.52059e-18
ExecutionTime = 40.18 s  ClockTime = 41 s

Time = 0.490625

Courant Number mean: 0.288997 max: 0.97619
smoothSolver:  Solving for Ux, Initial residual = 5.93852e-06, Final residual = 5.93852e-06, No Iterations 0
smoothSolver:  Solving for Uy, Initial residual = 9.1827e-06, Final residual = 9.1827e-06, No Iterations 0
DICPCG:  Solving for p, Initial residual = 1.51246e-06, Final residual = 8.94678e-07, No Iterations 16
time step continuity errors : sum local = 2.91512e-10, global = -2.93189e-20, cumulative = 9.49127e-18
DICPCG:  Solving for p, Initial residual = 1.34306e-06, Final residual = 8.92746e-07, No Iterations 3
time step continuity errors : sum local = 2.90919e-10, global = -7.26135e-20, cumulative = 9.41866e-18
ExecutionTime = 40.19 s  ClockTime = 41 s

Time = 0.49125

Courant Number mean: 0.288998 max: 0.97619
smoothSolver:  Solving for Ux, Initial residual = 5.92299e-06, Final residual = 5.92299e-06, No Iterations 0
smoothSolver:  Solving for Uy, Initial residual = 9.17093e-06, Final residual = 9.17093e-06, No Iterations 0
DICPCG:  Solving for p, Initial residual = 1.49605e-06, Final residual = 8.27896e-07, No Iterations 2
time step continuity errors : sum local = 2.72513e-10, global = -6.68343e-20, cumulative = 9.35182e-18
DICPCG:  Solving for p, Initial residual = 1.43819e-06, Final residual = 9.76017e-07, No Iterations 5
time step continuity errors : sum local = 3.14938e-10, global = -1.04501e-19, cumulative = 9.24732e-18
ExecutionTime = 40.19 s  ClockTime = 41 s

Time = 0.491875

Courant Number mean: 0.288999 max: 0.97619
smoothSolver:  Solving for Ux, Initial residual = 5.90766e-06, Final residual = 5.90766e-06, No Iterations 0
smoothSolver:  Solving for Uy, Initial residual = 9.14331e-06, Final residual = 9.14331e-06, No Iterations 0
DICPCG:  Solving for p, Initial residual = 1.71805e-06, Final residual = 8.27059e-07, No Iterations 22
time step continuity errors : sum local = 2.72916e-10, global = 1.48741e-19, cumulative = 9.39606e-18
DICPCG:  Solving for p, Initial residual = 1.28358e-06, Final residual = 9.80405e-07, No Iterations 4
time step continuity errors : sum local = 3.16431e-10, global = -2.57252e-20, cumulative = 9.37034e-18
ExecutionTime = 40.21 s  ClockTime = 41 s

Time = 0.4925

Courant Number mean: 0.289 max: 0.97619
smoothSolver:  Solving for Ux, Initial residual = 5.89348e-06, Final residual = 5.89348e-06, No Iterations 0
smoothSolver:  Solving for Uy, Initial residual = 9.12216e-06, Final residual = 9.12216e-06, No Iterations 0
DICPCG:  Solving for p, Initial residual = 1.6645e-06, Final residual = 9.34112e-07, No Iterations 3
time step continuity errors : sum local = 3.03481e-10, global = -5.09888e-20, cumulative = 9.31935e-18
DICPCG:  Solving for p, Initial residual = 1.47417e-06, Final residual = 9.88601e-07, No Iterations 6
time step continuity errors : sum local = 3.19452e-10, global = -1.3978e-19, cumulative = 9.17957e-18
ExecutionTime = 40.21 s  ClockTime = 41 s

Time = 0.493125

Courant Number mean: 0.289001 max: 0.97619
smoothSolver:  Solving for Ux, Initial residual = 5.87758e-06, Final residual = 5.87758e-06, No Iterations 0
smoothSolver:  Solving for Uy, Initial residual = 9.10651e-06, Final residual = 9.10651e-06, No Iterations 0
DICPCG:  Solving for p, Initial residual = 1.55789e-06, Final residual = 7.03741e-07, No Iterations 9
time step continuity errors : sum local = 2.37938e-10, global = 6.13926e-20, cumulative = 9.24096e-18
DICPCG:  Solving for p, Initial residual = 1.2703e-06, Final residual = 6.45327e-07, No Iterations 5
time step continuity errors : sum local = 2.20858e-10, global = 1.17209e-20, cumulative = 9.25268e-18
ExecutionTime = 40.22 s  ClockTime = 41 s

Time = 0.49375

Courant Number mean: 0.289001 max: 0.97619
smoothSolver:  Solving for Ux, Initial residual = 5.86295e-06, Final residual = 5.86295e-06, No Iterations 0
smoothSolver:  Solving for Uy, Initial residual = 9.09063e-06, Final residual = 9.09063e-06, No Iterations 0
DICPCG:  Solving for p, Initial residual = 1.20332e-06, Final residual = 9.34611e-07, No Iterations 14
time step continuity errors : sum local = 3.02117e-10, global = -1.26751e-19, cumulative = 9.12593e-18
DICPCG:  Solving for p, Initial residual = 1.32927e-06, Final residual = 9.38444e-07, No Iterations 9
time step continuity errors : sum local = 3.04688e-10, global = -1.73288e-19, cumulative = 8.95264e-18
ExecutionTime = 40.23 s  ClockTime = 41 s

Time = 0.494375

Courant Number mean: 0.289002 max: 0.97619
smoothSolver:  Solving for Ux, Initial residual = 5.84807e-06, Final residual = 5.84807e-06, No Iterations 0
smoothSolver:  Solving for Uy, Initial residual = 9.06505e-06, Final residual = 9.06505e-06, No Iterations 0
DICPCG:  Solving for p, Initial residual = 1.60671e-06, Final residual = 8.38048e-07, No Iterations 8
time step continuity errors : sum local = 2.76121e-10, global = 9.33223e-20, cumulative = 9.04597e-18
DICPCG:  Solving for p, Initial residual = 1.26793e-06, Final residual = 9.81208e-07, No Iterations 10
time step continuity errors : sum local = 3.16436e-10, global = -1.19362e-19, cumulative = 8.92661e-18
ExecutionTime = 40.25 s  ClockTime = 41 s

Time = 0.495

Courant Number mean: 0.289003 max: 0.97619
smoothSolver:  Solving for Ux, Initial residual = 5.83328e-06, Final residual = 5.83328e-06, No Iterations 0
smoothSolver:  Solving for Uy, Initial residual = 9.04753e-06, Final residual = 9.04753e-06, No Iterations 0
DICPCG:  Solving for p, Initial residual = 1.73225e-06, Final residual = 9.43335e-07, No Iterations 10
time step continuity errors : sum local = 3.05761e-10, global = -2.17618e-20, cumulative = 8.90484e-18
DICPCG:  Solving for p, Initial residual = 1.45406e-06, Final residual = 8.66416e-07, No Iterations 9
time step continuity errors : sum local = 2.83876e-10, global = 2.33001e-19, cumulative = 9.13784e-18
ExecutionTime = 40.26 s  ClockTime = 41 s

Time = 0.495625

Courant Number mean: 0.289004 max: 0.97619
smoothSolver:  Solving for Ux, Initial residual = 5.8181e-06, Final residual = 5.8181e-06, No Iterations 0
smoothSolver:  Solving for Uy, Initial residual = 9.02878e-06, Final residual = 9.02878e-06, No Iterations 0
DICPCG:  Solving for p, Initial residual = 1.5451e-06, Final residual = 9.85677e-07, No Iterations 13
time step continuity errors : sum local = 3.17701e-10, global = -1.28476e-19, cumulative = 9.00937e-18
DICPCG:  Solving for p, Initial residual = 1.50587e-06, Final residual = 9.70248e-07, No Iterations 6
time step continuity errors : sum local = 3.13834e-10, global = 2.29566e-19, cumulative = 9.23893e-18
ExecutionTime = 40.27 s  ClockTime = 41 s

Time = 0.49625

Courant Number mean: 0.289004 max: 0.97619
smoothSolver:  Solving for Ux, Initial residual = 5.80333e-06, Final residual = 5.80333e-06, No Iterations 0
smoothSolver:  Solving for Uy, Initial residual = 9.00993e-06, Final residual = 9.00993e-06, No Iterations 0
DICPCG:  Solving for p, Initial residual = 1.53731e-06, Final residual = 9.69099e-07, No Iterations 12
time step continuity errors : sum local = 3.13649e-10, global = 1.90842e-19, cumulative = 9.42978e-18
DICPCG:  Solving for p, Initial residual = 1.38498e-06, Final residual = 8.87813e-07, No Iterations 3
time step continuity errors : sum local = 2.9064e-10, global = -1.20762e-20, cumulative = 9.4177e-18
ExecutionTime = 40.28 s  ClockTime = 41 s

Time = 0.496875

Courant Number mean: 0.289005 max: 0.97619
smoothSolver:  Solving for Ux, Initial residual = 5.78834e-06, Final residual = 5.78834e-06, No Iterations 0
smoothSolver:  Solving for Uy, Initial residual = 8.98827e-06, Final residual = 8.98827e-06, No Iterations 0
DICPCG:  Solving for p, Initial residual = 1.57816e-06, Final residual = 8.6626e-07, No Iterations 12
time step continuity errors : sum local = 2.84299e-10, global = -2.20535e-19, cumulative = 9.19717e-18
DICPCG:  Solving for p, Initial residual = 1.36448e-06, Final residual = 8.65148e-07, No Iterations 2
time step continuity errors : sum local = 2.83801e-10, global = -6.66753e-20, cumulative = 9.13049e-18
ExecutionTime = 40.29 s  ClockTime = 41 s

Time = 0.4975

Courant Number mean: 0.289006 max: 0.976191
smoothSolver:  Solving for Ux, Initial residual = 5.77382e-06, Final residual = 5.77382e-06, No Iterations 0
smoothSolver:  Solving for Uy, Initial residual = 8.97081e-06, Final residual = 8.97081e-06, No Iterations 0
DICPCG:  Solving for p, Initial residual = 1.6139e-06, Final residual = 9.04153e-07, No Iterations 9
time step continuity errors : sum local = 2.95553e-10, global = -1.82631e-19, cumulative = 8.94786e-18
DICPCG:  Solving for p, Initial residual = 1.43159e-06, Final residual = 9.83788e-07, No Iterations 18
time step continuity errors : sum local = 3.17075e-10, global = -2.4563e-19, cumulative = 8.70223e-18
ExecutionTime = 40.3 s  ClockTime = 41 s

Time = 0.498125

Courant Number mean: 0.289007 max: 0.976191
smoothSolver:  Solving for Ux, Initial residual = 5.75984e-06, Final residual = 5.75984e-06, No Iterations 0
smoothSolver:  Solving for Uy, Initial residual = 8.94345e-06, Final residual = 8.94345e-06, No Iterations 0
DICPCG:  Solving for p, Initial residual = 1.56583e-06, Final residual = 8.42315e-07, No Iterations 5
time step continuity errors : sum local = 2.77652e-10, global = -6.40887e-20, cumulative = 8.63814e-18
DICPCG:  Solving for p, Initial residual = 1.42118e-06, Final residual = 8.63067e-07, No Iterations 3
time step continuity errors : sum local = 2.8367e-10, global = -2.01306e-19, cumulative = 8.43683e-18
ExecutionTime = 40.31 s  ClockTime = 41 s

Time = 0.49875

Courant Number mean: 0.289008 max: 0.976191
smoothSolver:  Solving for Ux, Initial residual = 5.74358e-06, Final residual = 5.74358e-06, No Iterations 0
smoothSolver:  Solving for Uy, Initial residual = 8.93042e-06, Final residual = 8.93042e-06, No Iterations 0
DICPCG:  Solving for p, Initial residual = 1.76258e-06, Final residual = 9.24277e-07, No Iterations 9
time step continuity errors : sum local = 3.01607e-10, global = 1.94893e-19, cumulative = 8.63173e-18
DICPCG:  Solving for p, Initial residual = 1.48127e-06, Final residual = 8.38331e-07, No Iterations 7
time step continuity errors : sum local = 2.76488e-10, global = 4.47303e-20, cumulative = 8.67646e-18
ExecutionTime = 40.31 s  ClockTime = 41 s

Time = 0.499375

Courant Number mean: 0.289008 max: 0.976191
smoothSolver:  Solving for Ux, Initial residual = 5.72916e-06, Final residual = 5.72916e-06, No Iterations 0
smoothSolver:  Solving for Uy, Initial residual = 8.91544e-06, Final residual = 8.91544e-06, No Iterations 0
DICPCG:  Solving for p, Initial residual = 1.6917e-06, Final residual = 8.90423e-07, No Iterations 17
time step continuity errors : sum local = 2.90906e-10, global = 8.22403e-20, cumulative = 8.7587e-18
DICPCG:  Solving for p, Initial residual = 1.29426e-06, Final residual = 9.82405e-07, No Iterations 4
time step continuity errors : sum local = 3.17269e-10, global = 9.74754e-20, cumulative = 8.85617e-18
ExecutionTime = 40.32 s  ClockTime = 41 s

Time = 0.5

Courant Number mean: 0.289009 max: 0.976191
smoothSolver:  Solving for Ux, Initial residual = 5.715e-06, Final residual = 5.715e-06, No Iterations 0
smoothSolver:  Solving for Uy, Initial residual = 8.8898e-06, Final residual = 8.8898e-06, No Iterations 0
DICPCG:  Solving for p, Initial residual = 1.59782e-06, Final residual = 9.50997e-07, No Iterations 3
time step continuity errors : sum local = 3.08205e-10, global = -9.7617e-21, cumulative = 8.84641e-18
DICPCG:  Solving for p, Initial residual = 1.47485e-06, Final residual = 8.4267e-07, No Iterations 9
time step continuity errors : sum local = 2.77776e-10, global = -1.21618e-19, cumulative = 8.72479e-18
ExecutionTime = 40.36 s  ClockTime = 42 s

End

