/*---------------------------------------------------------------------------*\
  =========                 |
  \\      /  F ield         | OpenFOAM: The Open Source CFD Toolbox
   \\    /   O peration     | Website:  https://openfoam.org
    \\  /    A nd           | Version:  7
     \\/     M anipulation  |
\*---------------------------------------------------------------------------*/
Build  : 7
Exec   : icoFoam
Date   : Feb 11 2026
Time   : 15:15:42
Host   : "c201-024.frontera.tacc.utexas.edu"
PID    : 109547
I/O    : uncollated
Case   : /work2/11329/kdn849/frontera/COE-347-SP26/cavity160.10.AR0.5
nProcs : 1
sigFpe : Enabling floating point exception trapping (FOAM_SIGFPE).
fileModificationChecking : Monitoring run-time modified files using timeStampMaster (fileModificationSkew 10)
allowSystemOperations : Allowing user-supplied system call operations

// * * * * * * * * * * * * * * * * * * * * * * * * * * * * * * * * * * * * * //
Create time

Create mesh for time = 0

Reading transportProperties

Reading field p

Reading field U

Reading/calculating face flux field phi


Starting time loop

Time = 0.000625

Courant Number mean: 0 max: 0
smoothSolver:  Solving for Ux, Initial residual = 1, Final residual = 9.96151e-06, No Iterations 125
smoothSolver:  Solving for Uy, Initial residual = 0, Final residual = 0, No Iterations 0
DICPCG:  Solving for p, Initial residual = 1, Final residual = 0.0474214, No Iterations 138
time step continuity errors : sum local = 2.94392e-05, global = 2.54772e-20, cumulative = 2.54772e-20
DICPCG:  Solving for p, Initial residual = 0.487965, Final residual = 9.52769e-07, No Iterations 201
time step continuity errors : sum local = 1.25828e-09, global = 5.94911e-20, cumulative = 8.49683e-20
ExecutionTime = 0.22 s  ClockTime = 1 s

Time = 0.00125

Courant Number mean: 0.0863189 max: 0.844743
smoothSolver:  Solving for Ux, Initial residual = 0.115152, Final residual = 9.50182e-06, No Iterations 133
smoothSolver:  Solving for Uy, Initial residual = 0.422494, Final residual = 9.41582e-06, No Iterations 153
DICPCG:  Solving for p, Initial residual = 0.831491, Final residual = 0.0413886, No Iterations 130
time step continuity errors : sum local = 5.60197e-05, global = 8.92941e-20, cumulative = 1.74262e-19
DICPCG:  Solving for p, Initial residual = 0.609773, Final residual = 8.85546e-07, No Iterations 196
time step continuity errors : sum local = 1.55939e-09, global = 1.08004e-19, cumulative = 2.82266e-19
ExecutionTime = 0.38 s  ClockTime = 1 s

Time = 0.001875

Courant Number mean: 0.13112 max: 0.966354
smoothSolver:  Solving for Ux, Initial residual = 0.0545621, Final residual = 9.44743e-06, No Iterations 111
smoothSolver:  Solving for Uy, Initial residual = 0.300446, Final residual = 9.63968e-06, No Iterations 139
DICPCG:  Solving for p, Initial residual = 0.902934, Final residual = 0.0419137, No Iterations 77
time step continuity errors : sum local = 7.99879e-05, global = 5.91434e-21, cumulative = 2.8818e-19
DICPCG:  Solving for p, Initial residual = 0.865652, Final residual = 8.93341e-07, No Iterations 199
time step continuity errors : sum local = 1.59158e-09, global = 1.37193e-19, cumulative = 4.25374e-19
ExecutionTime = 0.53 s  ClockTime = 1 s

Time = 0.0025

Courant Number mean: 0.153202 max: 0.944713
smoothSolver:  Solving for Ux, Initial residual = 0.0501642, Final residual = 9.73152e-06, No Iterations 124
smoothSolver:  Solving for Uy, Initial residual = 0.271465, Final residual = 9.53372e-06, No Iterations 143
DICPCG:  Solving for p, Initial residual = 0.861556, Final residual = 0.038022, No Iterations 133
time step continuity errors : sum local = 7.64234e-05, global = -3.29425e-20, cumulative = 3.92431e-19
DICPCG:  Solving for p, Initial residual = 0.549345, Final residual = 9.59281e-07, No Iterations 197
time step continuity errors : sum local = 2.88266e-09, global = -6.17315e-20, cumulative = 3.307e-19
ExecutionTime = 0.7 s  ClockTime = 1 s

Time = 0.003125

Courant Number mean: 0.174516 max: 0.971958
smoothSolver:  Solving for Ux, Initial residual = 0.0422067, Final residual = 9.66479e-06, No Iterations 110
smoothSolver:  Solving for Uy, Initial residual = 0.20681, Final residual = 9.52169e-06, No Iterations 130
DICPCG:  Solving for p, Initial residual = 0.891002, Final residual = 0.0425559, No Iterations 131
time step continuity errors : sum local = 8.05518e-05, global = 2.48568e-20, cumulative = 3.55557e-19
DICPCG:  Solving for p, Initial residual = 0.690386, Final residual = 9.47809e-07, No Iterations 194
time step continuity errors : sum local = 2.2058e-09, global = 8.00031e-20, cumulative = 4.3556e-19
ExecutionTime = 0.85 s  ClockTime = 1 s

Time = 0.00375

Courant Number mean: 0.18716 max: 0.963059
smoothSolver:  Solving for Ux, Initial residual = 0.0282666, Final residual = 9.97748e-06, No Iterations 103
smoothSolver:  Solving for Uy, Initial residual = 0.195131, Final residual = 9.94011e-06, No Iterations 141
DICPCG:  Solving for p, Initial residual = 0.854002, Final residual = 0.0382554, No Iterations 132
time step continuity errors : sum local = 7.06147e-05, global = -3.74092e-20, cumulative = 3.98151e-19
DICPCG:  Solving for p, Initial residual = 0.679085, Final residual = 9.35553e-07, No Iterations 193
time step continuity errors : sum local = 2.04622e-09, global = 1.60137e-21, cumulative = 3.99752e-19
ExecutionTime = 1.01 s  ClockTime = 1 s

Time = 0.004375

Courant Number mean: 0.19954 max: 0.965338
smoothSolver:  Solving for Ux, Initial residual = 0.0260261, Final residual = 9.70086e-06, No Iterations 107
smoothSolver:  Solving for Uy, Initial residual = 0.1449, Final residual = 9.61514e-06, No Iterations 124
DICPCG:  Solving for p, Initial residual = 0.882004, Final residual = 0.040373, No Iterations 48
time step continuity errors : sum local = 8.48682e-05, global = -1.01578e-19, cumulative = 2.98174e-19
DICPCG:  Solving for p, Initial residual = 0.835529, Final residual = 9.93129e-07, No Iterations 195
time step continuity errors : sum local = 1.78401e-09, global = -3.08148e-19, cumulative = -9.97338e-21
ExecutionTime = 1.14 s  ClockTime = 1 s

Time = 0.005

Courant Number mean: 0.209161 max: 0.969882
smoothSolver:  Solving for Ux, Initial residual = 0.067272, Final residual = 9.92365e-06, No Iterations 133
smoothSolver:  Solving for Uy, Initial residual = 0.28628, Final residual = 9.58644e-06, No Iterations 151
DICPCG:  Solving for p, Initial residual = 0.858, Final residual = 0.0427812, No Iterations 131
time step continuity errors : sum local = 0.000107929, global = 1.73615e-19, cumulative = 1.63641e-19
DICPCG:  Solving for p, Initial residual = 0.374737, Final residual = 9.21027e-07, No Iterations 195
time step continuity errors : sum local = 5.12606e-09, global = -9.5433e-20, cumulative = 6.82085e-20
ExecutionTime = 1.31 s  ClockTime = 2 s

Time = 0.005625

Courant Number mean: 0.22283 max: 0.98384
smoothSolver:  Solving for Ux, Initial residual = 0.0576422, Final residual = 9.76011e-06, No Iterations 118
smoothSolver:  Solving for Uy, Initial residual = 0.239367, Final residual = 9.6066e-06, No Iterations 140
DICPCG:  Solving for p, Initial residual = 0.886374, Final residual = 0.0353758, No Iterations 131
time step continuity errors : sum local = 9.05069e-05, global = 6.94418e-20, cumulative = 1.3765e-19
DICPCG:  Solving for p, Initial residual = 0.501027, Final residual = 8.50357e-07, No Iterations 192
time step continuity errors : sum local = 3.60387e-09, global = 1.62604e-19, cumulative = 3.00254e-19
ExecutionTime = 1.47 s  ClockTime = 2 s

Time = 0.00625

Courant Number mean: 0.226762 max: 0.970685
smoothSolver:  Solving for Ux, Initial residual = 0.0335453, Final residual = 9.96994e-06, No Iterations 108
smoothSolver:  Solving for Uy, Initial residual = 0.173294, Final residual = 9.98822e-06, No Iterations 126
DICPCG:  Solving for p, Initial residual = 0.867586, Final residual = 0.0430474, No Iterations 121
time step continuity errors : sum local = 0.000102163, global = -1.69572e-19, cumulative = 1.30682e-19
DICPCG:  Solving for p, Initial residual = 0.583049, Final residual = 7.92721e-07, No Iterations 194
time step continuity errors : sum local = 2.67452e-09, global = -1.56e-19, cumulative = -2.5318e-20
ExecutionTime = 1.63 s  ClockTime = 2 s

Time = 0.006875

Courant Number mean: 0.232819 max: 0.973825
smoothSolver:  Solving for Ux, Initial residual = 0.0247111, Final residual = 9.69786e-06, No Iterations 99
smoothSolver:  Solving for Uy, Initial residual = 0.180802, Final residual = 9.93834e-06, No Iterations 143
DICPCG:  Solving for p, Initial residual = 0.864789, Final residual = 0.0416853, No Iterations 131
time step continuity errors : sum local = 9.09704e-05, global = 5.77786e-20, cumulative = 3.24606e-20
DICPCG:  Solving for p, Initial residual = 0.593836, Final residual = 8.77885e-07, No Iterations 197
time step continuity errors : sum local = 2.63361e-09, global = 1.39349e-19, cumulative = 1.7181e-19
ExecutionTime = 1.78 s  ClockTime = 2 s

Time = 0.0075

Courant Number mean: 0.2385 max: 0.974488
smoothSolver:  Solving for Ux, Initial residual = 0.0263887, Final residual = 9.65834e-06, No Iterations 110
smoothSolver:  Solving for Uy, Initial residual = 0.132201, Final residual = 9.97317e-06, No Iterations 126
DICPCG:  Solving for p, Initial residual = 0.859089, Final residual = 0.0392063, No Iterations 131
time step continuity errors : sum local = 8.40468e-05, global = -1.62955e-20, cumulative = 1.55514e-19
DICPCG:  Solving for p, Initial residual = 0.647943, Final residual = 8.13258e-07, No Iterations 194
time step continuity errors : sum local = 2.18528e-09, global = -1.90155e-20, cumulative = 1.36499e-19
ExecutionTime = 1.94 s  ClockTime = 2 s

Time = 0.008125

Courant Number mean: 0.242751 max: 0.973976
smoothSolver:  Solving for Ux, Initial residual = 0.020322, Final residual = 9.78763e-06, No Iterations 97
smoothSolver:  Solving for Uy, Initial residual = 0.146086, Final residual = 9.53562e-06, No Iterations 142
DICPCG:  Solving for p, Initial residual = 0.848848, Final residual = 0.0400452, No Iterations 129
time step continuity errors : sum local = 7.74691e-05, global = 6.34551e-20, cumulative = 1.99954e-19
DICPCG:  Solving for p, Initial residual = 0.642605, Final residual = 8.59041e-07, No Iterations 193
time step continuity errors : sum local = 2.10177e-09, global = 8.9382e-20, cumulative = 2.89336e-19
ExecutionTime = 2.09 s  ClockTime = 2 s

Time = 0.00875

Courant Number mean: 0.247587 max: 0.97555
smoothSolver:  Solving for Ux, Initial residual = 0.0214282, Final residual = 9.7411e-06, No Iterations 108
smoothSolver:  Solving for Uy, Initial residual = 0.107491, Final residual = 9.65338e-06, No Iterations 127
DICPCG:  Solving for p, Initial residual = 0.833397, Final residual = 0.0390596, No Iterations 133
time step continuity errors : sum local = 6.47807e-05, global = -1.79126e-19, cumulative = 1.1021e-19
DICPCG:  Solving for p, Initial residual = 0.67584, Final residual = 8.59606e-07, No Iterations 195
time step continuity errors : sum local = 1.68801e-09, global = -2.41678e-19, cumulative = -1.31468e-19
ExecutionTime = 2.25 s  ClockTime = 3 s

Time = 0.009375

Courant Number mean: 0.251275 max: 0.977013
smoothSolver:  Solving for Ux, Initial residual = 0.0173613, Final residual = 9.72553e-06, No Iterations 98
smoothSolver:  Solving for Uy, Initial residual = 0.109936, Final residual = 9.63616e-06, No Iterations 135
DICPCG:  Solving for p, Initial residual = 0.80166, Final residual = 0.039697, No Iterations 127
time step continuity errors : sum local = 5.60577e-05, global = -1.62891e-19, cumulative = -2.94359e-19
DICPCG:  Solving for p, Initial residual = 0.601593, Final residual = 9.67146e-07, No Iterations 193
time step continuity errors : sum local = 1.72983e-09, global = 1.45155e-19, cumulative = -1.49204e-19
ExecutionTime = 2.4 s  ClockTime = 3 s

Time = 0.01

Courant Number mean: 0.254911 max: 0.972782
smoothSolver:  Solving for Ux, Initial residual = 0.0150177, Final residual = 9.40322e-06, No Iterations 99
smoothSolver:  Solving for Uy, Initial residual = 0.0749503, Final residual = 9.34639e-06, No Iterations 115
DICPCG:  Solving for p, Initial residual = 0.792081, Final residual = 0.034281, No Iterations 101
time step continuity errors : sum local = 4.46699e-05, global = -2.94967e-19, cumulative = -4.44172e-19
DICPCG:  Solving for p, Initial residual = 0.682141, Final residual = 9.26466e-07, No Iterations 193
time step continuity errors : sum local = 1.31078e-09, global = 8.94221e-20, cumulative = -3.5475e-19
ExecutionTime = 2.54 s  ClockTime = 3 s

Time = 0.010625

Courant Number mean: 0.258078 max: 0.971906
smoothSolver:  Solving for Ux, Initial residual = 0.0216169, Final residual = 9.43226e-06, No Iterations 114
smoothSolver:  Solving for Uy, Initial residual = 0.0711661, Final residual = 9.50275e-06, No Iterations 127
DICPCG:  Solving for p, Initial residual = 0.778567, Final residual = 0.0368641, No Iterations 71
time step continuity errors : sum local = 5.26565e-05, global = -4.15555e-20, cumulative = -3.96305e-19
DICPCG:  Solving for p, Initial residual = 0.747954, Final residual = 9.78235e-07, No Iterations 194
time step continuity errors : sum local = 1.21341e-09, global = -8.8134e-20, cumulative = -4.84439e-19
ExecutionTime = 2.69 s  ClockTime = 3 s

Time = 0.01125

Courant Number mean: 0.261703 max: 0.983869
smoothSolver:  Solving for Ux, Initial residual = 0.0426495, Final residual = 9.53714e-06, No Iterations 126
smoothSolver:  Solving for Uy, Initial residual = 0.12209, Final residual = 9.93929e-06, No Iterations 138
DICPCG:  Solving for p, Initial residual = 0.794987, Final residual = 0.0309407, No Iterations 131
time step continuity errors : sum local = 4.71217e-05, global = -1.11468e-19, cumulative = -5.95907e-19
DICPCG:  Solving for p, Initial residual = 0.373291, Final residual = 8.57301e-07, No Iterations 195
time step continuity errors : sum local = 2.69327e-09, global = 1.08134e-19, cumulative = -4.87773e-19
ExecutionTime = 2.85 s  ClockTime = 3 s

Time = 0.011875

Courant Number mean: 0.264078 max: 0.965588
smoothSolver:  Solving for Ux, Initial residual = 0.0302691, Final residual = 9.85763e-06, No Iterations 110
smoothSolver:  Solving for Uy, Initial residual = 0.120819, Final residual = 9.3834e-06, No Iterations 132
DICPCG:  Solving for p, Initial residual = 0.791321, Final residual = 0.0382923, No Iterations 129
time step continuity errors : sum local = 5.44562e-05, global = -1.09726e-19, cumulative = -5.97499e-19
DICPCG:  Solving for p, Initial residual = 0.480759, Final residual = 7.99407e-07, No Iterations 194
time step continuity errors : sum local = 1.79847e-09, global = 7.61142e-20, cumulative = -5.21385e-19
ExecutionTime = 3.01 s  ClockTime = 3 s

Time = 0.0125

Courant Number mean: 0.266517 max: 0.977961
smoothSolver:  Solving for Ux, Initial residual = 0.0160868, Final residual = 9.88087e-06, No Iterations 96
smoothSolver:  Solving for Uy, Initial residual = 0.0826983, Final residual = 9.51927e-06, No Iterations 123
DICPCG:  Solving for p, Initial residual = 0.786289, Final residual = 0.0381969, No Iterations 123
time step continuity errors : sum local = 5.07348e-05, global = -1.33859e-19, cumulative = -6.55243e-19
DICPCG:  Solving for p, Initial residual = 0.559193, Final residual = 9.17285e-07, No Iterations 193
time step continuity errors : sum local = 1.65134e-09, global = 2.64932e-20, cumulative = -6.2875e-19
ExecutionTime = 3.19 s  ClockTime = 4 s

Time = 0.013125

Courant Number mean: 0.268373 max: 0.970725
smoothSolver:  Solving for Ux, Initial residual = 0.0138282, Final residual = 9.6674e-06, No Iterations 100
smoothSolver:  Solving for Uy, Initial residual = 0.0607247, Final residual = 9.78956e-06, No Iterations 116
DICPCG:  Solving for p, Initial residual = 0.755141, Final residual = 0.0320271, No Iterations 129
time step continuity errors : sum local = 3.7954e-05, global = 1.01867e-19, cumulative = -5.26883e-19
DICPCG:  Solving for p, Initial residual = 0.540442, Final residual = 9.48683e-07, No Iterations 191
time step continuity errors : sum local = 1.50585e-09, global = 1.1781e-19, cumulative = -4.09072e-19
ExecutionTime = 3.34 s  ClockTime = 4 s

Time = 0.01375

Courant Number mean: 0.270509 max: 0.973401
smoothSolver:  Solving for Ux, Initial residual = 0.010463, Final residual = 9.44393e-06, No Iterations 91
smoothSolver:  Solving for Uy, Initial residual = 0.0565288, Final residual = 9.72797e-06, No Iterations 121
DICPCG:  Solving for p, Initial residual = 0.718021, Final residual = 0.0319721, No Iterations 129
time step continuity errors : sum local = 3.21346e-05, global = -3.24772e-20, cumulative = -4.4155e-19
DICPCG:  Solving for p, Initial residual = 0.535063, Final residual = 8.25933e-07, No Iterations 195
time step continuity errors : sum local = 1.05776e-09, global = 2.19926e-19, cumulative = -2.21624e-19
ExecutionTime = 3.49 s  ClockTime = 4 s

Time = 0.014375

Courant Number mean: 0.272169 max: 0.97521
smoothSolver:  Solving for Ux, Initial residual = 0.00905811, Final residual = 9.66799e-06, No Iterations 91
smoothSolver:  Solving for Uy, Initial residual = 0.0442842, Final residual = 9.39465e-06, No Iterations 111
DICPCG:  Solving for p, Initial residual = 0.698655, Final residual = 0.033767, No Iterations 129
time step continuity errors : sum local = 3.14631e-05, global = 1.66832e-19, cumulative = -5.4792e-20
DICPCG:  Solving for p, Initial residual = 0.54565, Final residual = 9.91169e-07, No Iterations 193
time step continuity errors : sum local = 1.11833e-09, global = 3.94948e-20, cumulative = -1.52972e-20
ExecutionTime = 3.63 s  ClockTime = 4 s

Time = 0.015

Courant Number mean: 0.273667 max: 0.975589
smoothSolver:  Solving for Ux, Initial residual = 0.00712903, Final residual = 9.83595e-06, No Iterations 84
smoothSolver:  Solving for Uy, Initial residual = 0.0444746, Final residual = 9.85929e-06, No Iterations 119
DICPCG:  Solving for p, Initial residual = 0.675118, Final residual = 0.0337229, No Iterations 127
time step continuity errors : sum local = 2.91879e-05, global = -8.22579e-20, cumulative = -9.75552e-20
DICPCG:  Solving for p, Initial residual = 0.551436, Final residual = 7.64281e-07, No Iterations 193
time step continuity errors : sum local = 7.72062e-10, global = 6.12071e-20, cumulative = -3.6348e-20
ExecutionTime = 3.77 s  ClockTime = 4 s

Time = 0.015625

Courant Number mean: 0.275065 max: 0.97507
smoothSolver:  Solving for Ux, Initial residual = 0.00813055, Final residual = 9.65514e-06, No Iterations 94
smoothSolver:  Solving for Uy, Initial residual = 0.0324356, Final residual = 9.77184e-06, No Iterations 110
DICPCG:  Solving for p, Initial residual = 0.659313, Final residual = 0.0252194, No Iterations 132
time step continuity errors : sum local = 2.07332e-05, global = -1.95628e-19, cumulative = -2.31976e-19
DICPCG:  Solving for p, Initial residual = 0.53621, Final residual = 8.21259e-07, No Iterations 195
time step continuity errors : sum local = 7.94949e-10, global = -8.23206e-20, cumulative = -3.14297e-19
ExecutionTime = 3.91 s  ClockTime = 4 s

Time = 0.01625

Courant Number mean: 0.276337 max: 0.975864
smoothSolver:  Solving for Ux, Initial residual = 0.00598353, Final residual = 9.42819e-06, No Iterations 85
smoothSolver:  Solving for Uy, Initial residual = 0.0315104, Final residual = 9.89421e-06, No Iterations 113
DICPCG:  Solving for p, Initial residual = 0.593389, Final residual = 0.0281093, No Iterations 126
time step continuity errors : sum local = 1.9154e-05, global = 2.85322e-20, cumulative = -2.85765e-19
DICPCG:  Solving for p, Initial residual = 0.504435, Final residual = 9.47363e-07, No Iterations 193
time step continuity errors : sum local = 7.27607e-10, global = -2.73674e-20, cumulative = -3.13132e-19
ExecutionTime = 4.06 s  ClockTime = 4 s

Time = 0.016875

Courant Number mean: 0.277621 max: 0.976412
smoothSolver:  Solving for Ux, Initial residual = 0.00578551, Final residual = 9.43017e-06, No Iterations 88
smoothSolver:  Solving for Uy, Initial residual = 0.0251096, Final residual = 9.78207e-06, No Iterations 106
DICPCG:  Solving for p, Initial residual = 0.562686, Final residual = 0.02572, No Iterations 130
time step continuity errors : sum local = 1.63813e-05, global = -2.73761e-19, cumulative = -5.86893e-19
DICPCG:  Solving for p, Initial residual = 0.471848, Final residual = 9.12454e-07, No Iterations 194
time step continuity errors : sum local = 6.66562e-10, global = 5.76046e-20, cumulative = -5.29288e-19
ExecutionTime = 4.2 s  ClockTime = 5 s

Time = 0.0175

Courant Number mean: 0.278714 max: 0.975109
smoothSolver:  Solving for Ux, Initial residual = 0.00434153, Final residual = 9.86281e-06, No Iterations 80
smoothSolver:  Solving for Uy, Initial residual = 0.0257878, Final residual = 9.99475e-06, No Iterations 113
DICPCG:  Solving for p, Initial residual = 0.510431, Final residual = 0.0204818, No Iterations 132
time step continuity errors : sum local = 1.16298e-05, global = 1.85491e-20, cumulative = -5.10739e-19
DICPCG:  Solving for p, Initial residual = 0.426873, Final residual = 8.96904e-07, No Iterations 192
time step continuity errors : sum local = 5.77895e-10, global = 4.81031e-20, cumulative = -4.62636e-19
ExecutionTime = 4.34 s  ClockTime = 5 s

Time = 0.018125

Courant Number mean: 0.279686 max: 0.974249
smoothSolver:  Solving for Ux, Initial residual = 0.00406421, Final residual = 9.79161e-06, No Iterations 82
smoothSolver:  Solving for Uy, Initial residual = 0.0167833, Final residual = 9.90241e-06, No Iterations 91
DICPCG:  Solving for p, Initial residual = 0.458154, Final residual = 0.0209376, No Iterations 101
time step continuity errors : sum local = 1.07617e-05, global = -2.41475e-19, cumulative = -7.0411e-19
DICPCG:  Solving for p, Initial residual = 0.382884, Final residual = 8.74228e-07, No Iterations 192
time step continuity errors : sum local = 5.07494e-10, global = 8.32567e-20, cumulative = -6.20854e-19
ExecutionTime = 4.46 s  ClockTime = 5 s

Time = 0.01875

Courant Number mean: 0.280548 max: 0.974672
smoothSolver:  Solving for Ux, Initial residual = 0.00318674, Final residual = 9.99335e-06, No Iterations 78
smoothSolver:  Solving for Uy, Initial residual = 0.0207538, Final residual = 9.43519e-06, No Iterations 114
DICPCG:  Solving for p, Initial residual = 0.445493, Final residual = 0.0221835, No Iterations 70
time step continuity errors : sum local = 1.33827e-05, global = 3.49587e-20, cumulative = -5.85895e-19
DICPCG:  Solving for p, Initial residual = 0.423468, Final residual = 9.45661e-07, No Iterations 190
time step continuity errors : sum local = 4.78881e-10, global = 6.08942e-20, cumulative = -5.25001e-19
ExecutionTime = 4.59 s  ClockTime = 5 s

Time = 0.019375

Courant Number mean: 0.281399 max: 0.974721
smoothSolver:  Solving for Ux, Initial residual = 0.010461, Final residual = 9.69939e-06, No Iterations 104
smoothSolver:  Solving for Uy, Initial residual = 0.0349163, Final residual = 9.69527e-06, No Iterations 119
DICPCG:  Solving for p, Initial residual = 0.521384, Final residual = 0.0228337, No Iterations 134
time step continuity errors : sum local = 1.42013e-05, global = 3.39144e-21, cumulative = -5.21609e-19
DICPCG:  Solving for p, Initial residual = 0.273554, Final residual = 9.68579e-07, No Iterations 193
time step continuity errors : sum local = 1.11077e-09, global = 1.43003e-19, cumulative = -3.78607e-19
ExecutionTime = 4.74 s  ClockTime = 5 s

Time = 0.02

Courant Number mean: 0.282571 max: 0.978319
smoothSolver:  Solving for Ux, Initial residual = 0.00910127, Final residual = 9.72864e-06, No Iterations 91
smoothSolver:  Solving for Uy, Initial residual = 0.0372843, Final residual = 9.59734e-06, No Iterations 113
DICPCG:  Solving for p, Initial residual = 0.549106, Final residual = 0.0241362, No Iterations 132
time step continuity errors : sum local = 1.52255e-05, global = -6.12631e-20, cumulative = -4.3987e-19
DICPCG:  Solving for p, Initial residual = 0.356102, Final residual = 9.04755e-07, No Iterations 190
time step continuity errors : sum local = 8.38965e-10, global = -1.52369e-20, cumulative = -4.55107e-19
ExecutionTime = 4.88 s  ClockTime = 5 s

Time = 0.020625

Courant Number mean: 0.282961 max: 0.973952
smoothSolver:  Solving for Ux, Initial residual = 0.00526782, Final residual = 9.36568e-06, No Iterations 80
smoothSolver:  Solving for Uy, Initial residual = 0.0266103, Final residual = 9.54139e-06, No Iterations 103
DICPCG:  Solving for p, Initial residual = 0.540574, Final residual = 0.0249422, No Iterations 121
time step continuity errors : sum local = 1.53824e-05, global = -2.91071e-20, cumulative = -4.84214e-19
DICPCG:  Solving for p, Initial residual = 0.405711, Final residual = 8.96498e-07, No Iterations 192
time step continuity errors : sum local = 7.041e-10, global = 4.65545e-20, cumulative = -4.37659e-19
ExecutionTime = 5.03 s  ClockTime = 5 s

Time = 0.02125

Courant Number mean: 0.283542 max: 0.975319
smoothSolver:  Solving for Ux, Initial residual = 0.00464703, Final residual = 9.65573e-06, No Iterations 83
smoothSolver:  Solving for Uy, Initial residual = 0.0222377, Final residual = 9.90997e-06, No Iterations 100
DICPCG:  Solving for p, Initial residual = 0.532199, Final residual = 0.0257871, No Iterations 131
time step continuity errors : sum local = 1.53184e-05, global = -3.16086e-20, cumulative = -4.69268e-19
DICPCG:  Solving for p, Initial residual = 0.405705, Final residual = 9.21667e-07, No Iterations 193
time step continuity errors : sum local = 6.82072e-10, global = -4.22332e-20, cumulative = -5.11501e-19
ExecutionTime = 5.16 s  ClockTime = 6 s

Time = 0.021875

Courant Number mean: 0.28404 max: 0.976023
smoothSolver:  Solving for Ux, Initial residual = 0.0036752, Final residual = 9.6167e-06, No Iterations 75
smoothSolver:  Solving for Uy, Initial residual = 0.0190473, Final residual = 9.81868e-06, No Iterations 100
DICPCG:  Solving for p, Initial residual = 0.504597, Final residual = 0.021569, No Iterations 127
time step continuity errors : sum local = 1.22454e-05, global = -3.70991e-20, cumulative = -5.486e-19
DICPCG:  Solving for p, Initial residual = 0.414497, Final residual = 8.45216e-07, No Iterations 191
time step continuity errors : sum local = 5.57981e-10, global = -1.52005e-20, cumulative = -5.63801e-19
ExecutionTime = 5.3 s  ClockTime = 6 s

Time = 0.0225

Courant Number mean: 0.284518 max: 0.974029
smoothSolver:  Solving for Ux, Initial residual = 0.00307324, Final residual = 9.88108e-06, No Iterations 74
smoothSolver:  Solving for Uy, Initial residual = 0.0155605, Final residual = 9.62932e-06, No Iterations 93
DICPCG:  Solving for p, Initial residual = 0.463888, Final residual = 0.0229635, No Iterations 129
time step continuity errors : sum local = 1.19e-05, global = -5.09905e-20, cumulative = -6.14791e-19
DICPCG:  Solving for p, Initial residual = 0.386332, Final residual = 8.93008e-07, No Iterations 190
time step continuity errors : sum local = 5.32658e-10, global = -1.68515e-19, cumulative = -7.83307e-19
ExecutionTime = 5.42 s  ClockTime = 6 s

Time = 0.023125

Courant Number mean: 0.284983 max: 0.974416
smoothSolver:  Solving for Ux, Initial residual = 0.002695, Final residual = 9.34799e-06, No Iterations 71
smoothSolver:  Solving for Uy, Initial residual = 0.0147703, Final residual = 9.65336e-06, No Iterations 100
DICPCG:  Solving for p, Initial residual = 0.427436, Final residual = 0.0199257, No Iterations 127
time step continuity errors : sum local = 9.78394e-06, global = 4.61877e-20, cumulative = -7.37119e-19
DICPCG:  Solving for p, Initial residual = 0.369133, Final residual = 8.73569e-07, No Iterations 187
time step continuity errors : sum local = 4.75502e-10, global = -8.43294e-20, cumulative = -8.21448e-19
ExecutionTime = 5.55 s  ClockTime = 6 s

Time = 0.02375

Courant Number mean: 0.285399 max: 0.974264
smoothSolver:  Solving for Ux, Initial residual = 0.00264076, Final residual = 9.82421e-06, No Iterations 75
smoothSolver:  Solving for Uy, Initial residual = 0.0124195, Final residual = 9.8192e-06, No Iterations 93
DICPCG:  Solving for p, Initial residual = 0.403642, Final residual = 0.0199073, No Iterations 130
time step continuity errors : sum local = 9.30712e-06, global = 5.20219e-20, cumulative = -7.69426e-19
DICPCG:  Solving for p, Initial residual = 0.346635, Final residual = 8.26494e-07, No Iterations 191
time step continuity errors : sum local = 4.32795e-10, global = 9.80236e-20, cumulative = -6.71403e-19
ExecutionTime = 5.69 s  ClockTime = 6 s

Time = 0.024375

Courant Number mean: 0.285779 max: 0.974143
smoothSolver:  Solving for Ux, Initial residual = 0.00227993, Final residual = 9.59585e-06, No Iterations 71
smoothSolver:  Solving for Uy, Initial residual = 0.012742, Final residual = 9.79324e-06, No Iterations 99
DICPCG:  Solving for p, Initial residual = 0.381096, Final residual = 0.017366, No Iterations 125
time step continuity errors : sum local = 7.92324e-06, global = -5.09181e-20, cumulative = -7.22321e-19
DICPCG:  Solving for p, Initial residual = 0.342908, Final residual = 8.46538e-07, No Iterations 189
time step continuity errors : sum local = 4.10916e-10, global = 2.30919e-19, cumulative = -4.91402e-19
ExecutionTime = 5.82 s  ClockTime = 6 s

Time = 0.025

Courant Number mean: 0.286093 max: 0.974572
smoothSolver:  Solving for Ux, Initial residual = 0.00240145, Final residual = 9.46732e-06, No Iterations 76
smoothSolver:  Solving for Uy, Initial residual = 0.00976264, Final residual = 9.6705e-06, No Iterations 92
DICPCG:  Solving for p, Initial residual = 0.355763, Final residual = 0.0164502, No Iterations 131
time step continuity errors : sum local = 7.13642e-06, global = 4.08376e-19, cumulative = -8.30256e-20
DICPCG:  Solving for p, Initial residual = 0.303977, Final residual = 9.26768e-07, No Iterations 189
time step continuity errors : sum local = 4.50653e-10, global = -6.73991e-21, cumulative = -8.97655e-20
ExecutionTime = 5.98 s  ClockTime = 6 s

Time = 0.025625

Courant Number mean: 0.286424 max: 0.974985
smoothSolver:  Solving for Ux, Initial residual = 0.00191082, Final residual = 9.93252e-06, No Iterations 69
smoothSolver:  Solving for Uy, Initial residual = 0.00971116, Final residual = 9.83002e-06, No Iterations 96
DICPCG:  Solving for p, Initial residual = 0.309118, Final residual = 0.0153791, No Iterations 99
time step continuity errors : sum local = 6.31229e-06, global = -5.38239e-20, cumulative = -1.43589e-19
DICPCG:  Solving for p, Initial residual = 0.274404, Final residual = 8.17845e-07, No Iterations 190
time step continuity errors : sum local = 3.58517e-10, global = -3.55752e-22, cumulative = -1.43945e-19
ExecutionTime = 6.1 s  ClockTime = 6 s

Time = 0.02625

Courant Number mean: 0.286697 max: 0.974536
smoothSolver:  Solving for Ux, Initial residual = 0.00214448, Final residual = 9.81725e-06, No Iterations 77
smoothSolver:  Solving for Uy, Initial residual = 0.00844412, Final residual = 9.61745e-06, No Iterations 94
DICPCG:  Solving for p, Initial residual = 0.29228, Final residual = 0.0144708, No Iterations 121
time step continuity errors : sum local = 5.74399e-06, global = -6.12941e-20, cumulative = -2.05239e-19
DICPCG:  Solving for p, Initial residual = 0.252992, Final residual = 8.22088e-07, No Iterations 189
time step continuity errors : sum local = 3.59559e-10, global = 1.94401e-19, cumulative = -1.08379e-20
ExecutionTime = 6.23 s  ClockTime = 7 s

Time = 0.026875

Courant Number mean: 0.286914 max: 0.973518
smoothSolver:  Solving for Ux, Initial residual = 0.00190965, Final residual = 9.69044e-06, No Iterations 72
smoothSolver:  Solving for Uy, Initial residual = 0.00636953, Final residual = 9.44918e-06, No Iterations 88
DICPCG:  Solving for p, Initial residual = 0.262202, Final residual = 0.0127827, No Iterations 127
time step continuity errors : sum local = 4.89951e-06, global = 3.14898e-20, cumulative = 2.06519e-20
DICPCG:  Solving for p, Initial residual = 0.238615, Final residual = 8.12668e-07, No Iterations 188
time step continuity errors : sum local = 3.26878e-10, global = 5.09687e-20, cumulative = 7.16206e-20
ExecutionTime = 6.36 s  ClockTime = 7 s

Time = 0.0275

Courant Number mean: 0.287177 max: 0.97523
smoothSolver:  Solving for Ux, Initial residual = 0.0010476, Final residual = 9.88687e-06, No Iterations 52
smoothSolver:  Solving for Uy, Initial residual = 0.00625508, Final residual = 9.43043e-06, No Iterations 91
DICPCG:  Solving for p, Initial residual = 0.227221, Final residual = 0.0106173, No Iterations 128
time step continuity errors : sum local = 3.88955e-06, global = 3.38909e-19, cumulative = 4.10529e-19
DICPCG:  Solving for p, Initial residual = 0.210636, Final residual = 8.77962e-07, No Iterations 188
time step continuity errors : sum local = 3.31237e-10, global = -1.74968e-19, cumulative = 2.35561e-19
ExecutionTime = 6.48 s  ClockTime = 7 s

Time = 0.028125

Courant Number mean: 0.287411 max: 0.974648
smoothSolver:  Solving for Ux, Initial residual = 0.00105262, Final residual = 9.72889e-06, No Iterations 64
smoothSolver:  Solving for Uy, Initial residual = 0.0040222, Final residual = 9.43455e-06, No Iterations 73
DICPCG:  Solving for p, Initial residual = 0.19951, Final residual = 0.00984834, No Iterations 131
time step continuity errors : sum local = 3.50295e-06, global = 2.2481e-19, cumulative = 4.60371e-19
DICPCG:  Solving for p, Initial residual = 0.184905, Final residual = 8.91762e-07, No Iterations 187
time step continuity errors : sum local = 3.27034e-10, global = 1.5484e-19, cumulative = 6.15211e-19
ExecutionTime = 6.6 s  ClockTime = 7 s

Time = 0.02875

Courant Number mean: 0.287607 max: 0.975009
smoothSolver:  Solving for Ux, Initial residual = 0.000775652, Final residual = 9.73304e-06, No Iterations 52
smoothSolver:  Solving for Uy, Initial residual = 0.00495275, Final residual = 9.47996e-06, No Iterations 89
DICPCG:  Solving for p, Initial residual = 0.175046, Final residual = 0.00775493, No Iterations 131
time step continuity errors : sum local = 2.66813e-06, global = 4.88088e-20, cumulative = 6.6402e-19
DICPCG:  Solving for p, Initial residual = 0.161262, Final residual = 8.82522e-07, No Iterations 187
time step continuity errors : sum local = 3.12507e-10, global = -2.20216e-19, cumulative = 4.43804e-19
ExecutionTime = 6.72 s  ClockTime = 7 s

Time = 0.029375

Courant Number mean: 0.287804 max: 0.974504
smoothSolver:  Solving for Ux, Initial residual = 0.000822362, Final residual = 9.69206e-06, No Iterations 60
smoothSolver:  Solving for Uy, Initial residual = 0.00301059, Final residual = 9.50208e-06, No Iterations 73
DICPCG:  Solving for p, Initial residual = 0.153266, Final residual = 0.00656643, No Iterations 132
time step continuity errors : sum local = 2.21199e-06, global = -1.54122e-19, cumulative = 2.89682e-19
DICPCG:  Solving for p, Initial residual = 0.14365, Final residual = 9.80511e-07, No Iterations 184
time step continuity errors : sum local = 3.35654e-10, global = -1.99927e-19, cumulative = 8.97544e-20
ExecutionTime = 6.85 s  ClockTime = 7 s

Time = 0.03

Courant Number mean: 0.287967 max: 0.97511
smoothSolver:  Solving for Ux, Initial residual = 0.000608293, Final residual = 9.47893e-06, No Iterations 51
smoothSolver:  Solving for Uy, Initial residual = 0.00319193, Final residual = 9.73013e-06, No Iterations 82
DICPCG:  Solving for p, Initial residual = 0.126602, Final residual = 0.00585673, No Iterations 128
time step continuity errors : sum local = 1.92037e-06, global = 2.02194e-20, cumulative = 1.09974e-19
DICPCG:  Solving for p, Initial residual = 0.118635, Final residual = 9.41271e-07, No Iterations 186
time step continuity errors : sum local = 3.13902e-10, global = 2.47207e-20, cumulative = 1.34695e-19
ExecutionTime = 6.97 s  ClockTime = 7 s

Time = 0.030625

Courant Number mean: 0.288128 max: 0.974637
smoothSolver:  Solving for Ux, Initial residual = 0.000538799, Final residual = 9.78859e-06, No Iterations 52
smoothSolver:  Solving for Uy, Initial residual = 0.00214658, Final residual = 9.68321e-06, No Iterations 70
DICPCG:  Solving for p, Initial residual = 0.108805, Final residual = 0.00466671, No Iterations 132
time step continuity errors : sum local = 1.50637e-06, global = -1.94982e-20, cumulative = 1.15196e-19
DICPCG:  Solving for p, Initial residual = 0.102634, Final residual = 9.47773e-07, No Iterations 184
time step continuity errors : sum local = 3.09105e-10, global = 6.68922e-21, cumulative = 1.21886e-19
ExecutionTime = 7.08 s  ClockTime = 7 s

Time = 0.03125

Courant Number mean: 0.288274 max: 0.975204
smoothSolver:  Solving for Ux, Initial residual = 0.000410658, Final residual = 9.67527e-06, No Iterations 46
smoothSolver:  Solving for Uy, Initial residual = 0.00208635, Final residual = 9.44722e-06, No Iterations 74
DICPCG:  Solving for p, Initial residual = 0.0876398, Final residual = 0.0042264, No Iterations 123
time step continuity errors : sum local = 1.33196e-06, global = 8.09732e-21, cumulative = 1.29983e-19
DICPCG:  Solving for p, Initial residual = 0.0829819, Final residual = 8.02189e-07, No Iterations 183
time step continuity errors : sum local = 2.5561e-10, global = -7.43492e-20, cumulative = 5.56336e-20
ExecutionTime = 7.2 s  ClockTime = 8 s

Time = 0.031875

Courant Number mean: 0.288398 max: 0.974702
smoothSolver:  Solving for Ux, Initial residual = 0.000421984, Final residual = 9.52549e-06, No Iterations 50
smoothSolver:  Solving for Uy, Initial residual = 0.00173104, Final residual = 9.48161e-06, No Iterations 69
DICPCG:  Solving for p, Initial residual = 0.0830915, Final residual = 0.00404858, No Iterations 129
time step continuity errors : sum local = 1.26987e-06, global = 1.23598e-19, cumulative = 1.79231e-19
DICPCG:  Solving for p, Initial residual = 0.0797207, Final residual = 9.61096e-07, No Iterations 180
time step continuity errors : sum local = 3.01813e-10, global = -1.74124e-20, cumulative = 1.61819e-19
ExecutionTime = 7.31 s  ClockTime = 8 s

Time = 0.0325

Courant Number mean: 0.28852 max: 0.975061
smoothSolver:  Solving for Ux, Initial residual = 0.000344475, Final residual = 9.40149e-06, No Iterations 44
smoothSolver:  Solving for Uy, Initial residual = 0.0017206, Final residual = 9.52915e-06, No Iterations 72
DICPCG:  Solving for p, Initial residual = 0.07204, Final residual = 0.00357066, No Iterations 126
time step continuity errors : sum local = 1.10812e-06, global = -8.95798e-20, cumulative = 7.2239e-20
DICPCG:  Solving for p, Initial residual = 0.0685488, Final residual = 8.75345e-07, No Iterations 183
time step continuity errors : sum local = 2.73629e-10, global = -8.17259e-20, cumulative = -9.48687e-21
ExecutionTime = 7.42 s  ClockTime = 8 s

Time = 0.033125

Courant Number mean: 0.288624 max: 0.97486
smoothSolver:  Solving for Ux, Initial residual = 0.000314898, Final residual = 9.84752e-06, No Iterations 45
smoothSolver:  Solving for Uy, Initial residual = 0.00133942, Final residual = 9.77731e-06, No Iterations 61
DICPCG:  Solving for p, Initial residual = 0.0648164, Final residual = 0.00290743, No Iterations 132
time step continuity errors : sum local = 8.95705e-07, global = -2.6875e-19, cumulative = -2.78237e-19
DICPCG:  Solving for p, Initial residual = 0.0628666, Final residual = 9.08485e-07, No Iterations 179
time step continuity errors : sum local = 2.78081e-10, global = -9.85585e-21, cumulative = -2.88092e-19
ExecutionTime = 7.53 s  ClockTime = 8 s

Time = 0.03375

Courant Number mean: 0.288718 max: 0.975033
smoothSolver:  Solving for Ux, Initial residual = 0.000259006, Final residual = 9.3813e-06, No Iterations 40
smoothSolver:  Solving for Uy, Initial residual = 0.00138044, Final residual = 9.62012e-06, No Iterations 69
DICPCG:  Solving for p, Initial residual = 0.0521985, Final residual = 0.00252104, No Iterations 128
time step continuity errors : sum local = 7.67085e-07, global = 4.72966e-20, cumulative = -2.40796e-19
DICPCG:  Solving for p, Initial residual = 0.0498627, Final residual = 9.20984e-07, No Iterations 182
time step continuity errors : sum local = 2.81267e-10, global = -5.4498e-20, cumulative = -2.95294e-19
ExecutionTime = 7.64 s  ClockTime = 8 s

Time = 0.034375

Courant Number mean: 0.288808 max: 0.974827
smoothSolver:  Solving for Ux, Initial residual = 0.000242949, Final residual = 9.83791e-06, No Iterations 41
smoothSolver:  Solving for Uy, Initial residual = 0.000929274, Final residual = 9.8727e-06, No Iterations 56
DICPCG:  Solving for p, Initial residual = 0.0449759, Final residual = 0.00213184, No Iterations 132
time step continuity errors : sum local = 6.46056e-07, global = -1.34262e-19, cumulative = -4.29555e-19
DICPCG:  Solving for p, Initial residual = 0.0434036, Final residual = 8.12407e-07, No Iterations 178
time step continuity errors : sum local = 2.44598e-10, global = 9.75618e-21, cumulative = -4.19799e-19
ExecutionTime = 7.74 s  ClockTime = 8 s

Time = 0.035

Courant Number mean: 0.288888 max: 0.975028
smoothSolver:  Solving for Ux, Initial residual = 0.000185915, Final residual = 9.89159e-06, No Iterations 34
smoothSolver:  Solving for Uy, Initial residual = 0.000952493, Final residual = 9.70665e-06, No Iterations 63
DICPCG:  Solving for p, Initial residual = 0.0383908, Final residual = 0.00189177, No Iterations 82
time step continuity errors : sum local = 6.44714e-07, global = -4.61767e-20, cumulative = -4.65976e-19
DICPCG:  Solving for p, Initial residual = 0.0366858, Final residual = 9.41652e-07, No Iterations 181
time step continuity errors : sum local = 2.83235e-10, global = -1.17002e-19, cumulative = -5.82978e-19
ExecutionTime = 7.84 s  ClockTime = 8 s

Time = 0.035625

Courant Number mean: 0.288959 max: 0.974896
smoothSolver:  Solving for Ux, Initial residual = 0.000460852, Final residual = 9.6459e-06, No Iterations 56
smoothSolver:  Solving for Uy, Initial residual = 0.00124965, Final residual = 9.42101e-06, No Iterations 64
DICPCG:  Solving for p, Initial residual = 0.0474217, Final residual = 0.00214021, No Iterations 132
time step continuity errors : sum local = 6.51391e-07, global = -1.42013e-19, cumulative = -7.24991e-19
DICPCG:  Solving for p, Initial residual = 0.0435493, Final residual = 8.47196e-07, No Iterations 184
time step continuity errors : sum local = 2.69525e-10, global = 4.4082e-20, cumulative = -6.80909e-19
ExecutionTime = 7.95 s  ClockTime = 8 s

Time = 0.03625

Courant Number mean: 0.289038 max: 0.975226
smoothSolver:  Solving for Ux, Initial residual = 0.000363723, Final residual = 9.77006e-06, No Iterations 42
smoothSolver:  Solving for Uy, Initial residual = 0.00155661, Final residual = 9.46049e-06, No Iterations 68
DICPCG:  Solving for p, Initial residual = 0.0485205, Final residual = 0.00236056, No Iterations 129
time step continuity errors : sum local = 7.17464e-07, global = -3.07301e-19, cumulative = -9.88209e-19
DICPCG:  Solving for p, Initial residual = 0.0452453, Final residual = 7.93916e-07, No Iterations 184
time step continuity errors : sum local = 2.49185e-10, global = 3.20936e-20, cumulative = -9.56116e-19
ExecutionTime = 8.06 s  ClockTime = 8 s

Time = 0.036875

Courant Number mean: 0.289092 max: 0.974878
smoothSolver:  Solving for Ux, Initial residual = 0.000260904, Final residual = 9.49816e-06, No Iterations 41
smoothSolver:  Solving for Uy, Initial residual = 0.00103007, Final residual = 9.98865e-06, No Iterations 57
DICPCG:  Solving for p, Initial residual = 0.0448221, Final residual = 0.00218479, No Iterations 129
time step continuity errors : sum local = 6.63262e-07, global = 4.88182e-20, cumulative = -9.07298e-19
DICPCG:  Solving for p, Initial residual = 0.042272, Final residual = 9.19516e-07, No Iterations 183
time step continuity errors : sum local = 2.80023e-10, global = 8.94153e-21, cumulative = -8.98356e-19
ExecutionTime = 8.17 s  ClockTime = 9 s

Time = 0.0375

Courant Number mean: 0.289147 max: 0.975051
smoothSolver:  Solving for Ux, Initial residual = 0.000199299, Final residual = 9.77347e-06, No Iterations 34
smoothSolver:  Solving for Uy, Initial residual = 0.00102343, Final residual = 9.67152e-06, No Iterations 62
DICPCG:  Solving for p, Initial residual = 0.0431492, Final residual = 0.00210065, No Iterations 122
time step continuity errors : sum local = 6.36818e-07, global = -6.14049e-20, cumulative = -9.59761e-19
DICPCG:  Solving for p, Initial residual = 0.0409426, Final residual = 8.9568e-07, No Iterations 183
time step continuity errors : sum local = 2.73872e-10, global = 1.32867e-19, cumulative = -8.26894e-19
ExecutionTime = 8.3 s  ClockTime = 9 s

Time = 0.038125

Courant Number mean: 0.289199 max: 0.974955
smoothSolver:  Solving for Ux, Initial residual = 0.000219784, Final residual = 9.70215e-06, No Iterations 41
smoothSolver:  Solving for Uy, Initial residual = 0.00083975, Final residual = 9.9707e-06, No Iterations 59
DICPCG:  Solving for p, Initial residual = 0.0386429, Final residual = 0.0016571, No Iterations 134
time step continuity errors : sum local = 4.98695e-07, global = -1.3737e-19, cumulative = -9.64264e-19
DICPCG:  Solving for p, Initial residual = 0.0370921, Final residual = 9.06818e-07, No Iterations 182
time step continuity errors : sum local = 2.72364e-10, global = 1.67422e-19, cumulative = -7.96842e-19
ExecutionTime = 8.42 s  ClockTime = 9 s

Time = 0.03875

Courant Number mean: 0.289244 max: 0.975001
smoothSolver:  Solving for Ux, Initial residual = 0.00015719, Final residual = 9.35393e-06, No Iterations 31
smoothSolver:  Solving for Uy, Initial residual = 0.000608733, Final residual = 9.47924e-06, No Iterations 51
DICPCG:  Solving for p, Initial residual = 0.0298749, Final residual = 0.0013427, No Iterations 124
time step continuity errors : sum local = 4.01203e-07, global = -2.49644e-19, cumulative = -1.04649e-18
DICPCG:  Solving for p, Initial residual = 0.0282424, Final residual = 8.20611e-07, No Iterations 181
time step continuity errors : sum local = 2.46814e-10, global = 2.2823e-19, cumulative = -8.18256e-19
ExecutionTime = 8.51 s  ClockTime = 9 s

Time = 0.039375

Courant Number mean: 0.289284 max: 0.974994
smoothSolver:  Solving for Ux, Initial residual = 0.000113104, Final residual = 9.85453e-06, No Iterations 28
smoothSolver:  Solving for Uy, Initial residual = 0.000611182, Final residual = 9.73704e-06, No Iterations 55
DICPCG:  Solving for p, Initial residual = 0.0242693, Final residual = 0.00112652, No Iterations 131
time step continuity errors : sum local = 3.35262e-07, global = 3.26206e-20, cumulative = -7.85635e-19
DICPCG:  Solving for p, Initial residual = 0.0233753, Final residual = 9.19711e-07, No Iterations 179
time step continuity errors : sum local = 2.7164e-10, global = 1.16611e-19, cumulative = -6.69024e-19
ExecutionTime = 8.61 s  ClockTime = 9 s

Time = 0.04

Courant Number mean: 0.289318 max: 0.974983
smoothSolver:  Solving for Ux, Initial residual = 9.45348e-05, Final residual = 9.5694e-06, No Iterations 28
smoothSolver:  Solving for Uy, Initial residual = 0.000511422, Final residual = 9.46993e-06, No Iterations 51
DICPCG:  Solving for p, Initial residual = 0.0199545, Final residual = 0.00084066, No Iterations 125
time step continuity errors : sum local = 2.48896e-07, global = 4.63116e-20, cumulative = -6.22712e-19
DICPCG:  Solving for p, Initial residual = 0.018899, Final residual = 9.98709e-07, No Iterations 173
time step continuity errors : sum local = 2.96784e-10, global = 1.29448e-19, cumulative = -4.93264e-19
ExecutionTime = 8.71 s  ClockTime = 9 s

Time = 0.040625

Courant Number mean: 0.289354 max: 0.975014
smoothSolver:  Solving for Ux, Initial residual = 8.25926e-05, Final residual = 9.93534e-06, No Iterations 23
smoothSolver:  Solving for Uy, Initial residual = 0.000431479, Final residual = 9.40821e-06, No Iterations 50
DICPCG:  Solving for p, Initial residual = 0.015578, Final residual = 0.000736784, No Iterations 132
time step continuity errors : sum local = 2.16839e-07, global = 1.26431e-19, cumulative = -3.66833e-19
DICPCG:  Solving for p, Initial residual = 0.0148239, Final residual = 8.47492e-07, No Iterations 176
time step continuity errors : sum local = 2.48873e-10, global = 9.66901e-20, cumulative = -2.70143e-19
ExecutionTime = 8.81 s  ClockTime = 9 s

Time = 0.04125

Courant Number mean: 0.289381 max: 0.975005
smoothSolver:  Solving for Ux, Initial residual = 6.17244e-05, Final residual = 9.37547e-06, No Iterations 21
smoothSolver:  Solving for Uy, Initial residual = 0.000330142, Final residual = 9.46534e-06, No Iterations 43
DICPCG:  Solving for p, Initial residual = 0.0133776, Final residual = 0.0005899, No Iterations 122
time step continuity errors : sum local = 1.73694e-07, global = 9.75788e-20, cumulative = -1.72564e-19
DICPCG:  Solving for p, Initial residual = 0.0126414, Final residual = 9.08028e-07, No Iterations 175
time step continuity errors : sum local = 2.68021e-10, global = -1.88701e-19, cumulative = -3.61264e-19
ExecutionTime = 8.9 s  ClockTime = 9 s

Time = 0.041875

Courant Number mean: 0.289409 max: 0.974999
smoothSolver:  Solving for Ux, Initial residual = 5.36132e-05, Final residual = 9.32924e-06, No Iterations 19
smoothSolver:  Solving for Uy, Initial residual = 0.000256729, Final residual = 9.39858e-06, No Iterations 40
DICPCG:  Solving for p, Initial residual = 0.0112791, Final residual = 0.000542022, No Iterations 126
time step continuity errors : sum local = 1.59386e-07, global = -1.29341e-19, cumulative = -4.90605e-19
DICPCG:  Solving for p, Initial residual = 0.0107433, Final residual = 9.17522e-07, No Iterations 172
time step continuity errors : sum local = 2.68907e-10, global = -6.99613e-20, cumulative = -5.60566e-19
ExecutionTime = 8.99 s  ClockTime = 9 s

Time = 0.0425

Courant Number mean: 0.289431 max: 0.975012
smoothSolver:  Solving for Ux, Initial residual = 4.94302e-05, Final residual = 9.37056e-06, No Iterations 19
smoothSolver:  Solving for Uy, Initial residual = 0.000204593, Final residual = 9.67988e-06, No Iterations 37
DICPCG:  Solving for p, Initial residual = 0.0090238, Final residual = 0.00039937, No Iterations 129
time step continuity errors : sum local = 1.17101e-07, global = 6.33901e-20, cumulative = -4.97176e-19
DICPCG:  Solving for p, Initial residual = 0.00858764, Final residual = 9.50758e-07, No Iterations 171
time step continuity errors : sum local = 2.79584e-10, global = -1.80423e-19, cumulative = -6.77599e-19
ExecutionTime = 9.08 s  ClockTime = 9 s

Time = 0.043125

Courant Number mean: 0.289453 max: 0.974995
smoothSolver:  Solving for Ux, Initial residual = 4.03286e-05, Final residual = 9.46608e-06, No Iterations 16
smoothSolver:  Solving for Uy, Initial residual = 0.00016824, Final residual = 9.53569e-06, No Iterations 35
DICPCG:  Solving for p, Initial residual = 0.00657554, Final residual = 0.00029596, No Iterations 126
time step continuity errors : sum local = 8.69522e-08, global = 7.42546e-20, cumulative = -6.03345e-19
DICPCG:  Solving for p, Initial residual = 0.00625923, Final residual = 8.85555e-07, No Iterations 173
time step continuity errors : sum local = 2.59047e-10, global = 2.66725e-19, cumulative = -3.3662e-19
ExecutionTime = 9.17 s  ClockTime = 10 s

Time = 0.04375

Courant Number mean: 0.289471 max: 0.975017
smoothSolver:  Solving for Ux, Initial residual = 3.39747e-05, Final residual = 9.7628e-06, No Iterations 14
smoothSolver:  Solving for Uy, Initial residual = 0.000164288, Final residual = 9.56296e-06, No Iterations 37
DICPCG:  Solving for p, Initial residual = 0.00548008, Final residual = 0.000214351, No Iterations 126
time step continuity errors : sum local = 6.28909e-08, global = -1.03449e-19, cumulative = -4.40069e-19
DICPCG:  Solving for p, Initial residual = 0.00516586, Final residual = 9.19972e-07, No Iterations 168
time step continuity errors : sum local = 2.69572e-10, global = 7.27551e-21, cumulative = -4.32793e-19
ExecutionTime = 9.25 s  ClockTime = 10 s

Time = 0.044375

Courant Number mean: 0.289489 max: 0.975007
smoothSolver:  Solving for Ux, Initial residual = 3.16399e-05, Final residual = 9.35633e-06, No Iterations 14
smoothSolver:  Solving for Uy, Initial residual = 0.000132129, Final residual = 9.38223e-06, No Iterations 33
DICPCG:  Solving for p, Initial residual = 0.00461988, Final residual = 0.000225679, No Iterations 131
time step continuity errors : sum local = 6.60755e-08, global = -2.09476e-20, cumulative = -4.53741e-19
DICPCG:  Solving for p, Initial residual = 0.00439855, Final residual = 8.80741e-07, No Iterations 168
time step continuity errors : sum local = 2.57791e-10, global = 6.6552e-20, cumulative = -3.87189e-19
ExecutionTime = 9.34 s  ClockTime = 10 s

Time = 0.045

Courant Number mean: 0.289504 max: 0.975018
smoothSolver:  Solving for Ux, Initial residual = 2.42064e-05, Final residual = 9.54209e-06, No Iterations 10
smoothSolver:  Solving for Uy, Initial residual = 0.00011112, Final residual = 9.9533e-06, No Iterations 31
DICPCG:  Solving for p, Initial residual = 0.00325432, Final residual = 0.000135904, No Iterations 124
time step continuity errors : sum local = 3.97244e-08, global = -8.85911e-21, cumulative = -3.96048e-19
DICPCG:  Solving for p, Initial residual = 0.00304921, Final residual = 9.05302e-07, No Iterations 168
time step continuity errors : sum local = 2.64604e-10, global = 1.72511e-19, cumulative = -2.23537e-19
ExecutionTime = 9.42 s  ClockTime = 10 s

Time = 0.045625

Courant Number mean: 0.289518 max: 0.975015
smoothSolver:  Solving for Ux, Initial residual = 2.21395e-05, Final residual = 9.56752e-06, No Iterations 10
smoothSolver:  Solving for Uy, Initial residual = 7.45118e-05, Final residual = 9.6717e-06, No Iterations 24
DICPCG:  Solving for p, Initial residual = 0.00215091, Final residual = 9.0639e-05, No Iterations 119
time step continuity errors : sum local = 2.65422e-08, global = 2.14852e-19, cumulative = -8.68514e-21
DICPCG:  Solving for p, Initial residual = 0.0020206, Final residual = 8.54848e-07, No Iterations 166
time step continuity errors : sum local = 2.49975e-10, global = 6.87003e-20, cumulative = 6.00152e-20
ExecutionTime = 9.5 s  ClockTime = 10 s

Time = 0.04625

Courant Number mean: 0.289529 max: 0.975018
smoothSolver:  Solving for Ux, Initial residual = 1.81359e-05, Final residual = 9.76392e-06, No Iterations 7
smoothSolver:  Solving for Uy, Initial residual = 6.22491e-05, Final residual = 9.72068e-06, No Iterations 24
DICPCG:  Solving for p, Initial residual = 0.00158839, Final residual = 7.84357e-05, No Iterations 126
time step continuity errors : sum local = 2.29342e-08, global = 4.9643e-20, cumulative = 1.09658e-19
DICPCG:  Solving for p, Initial residual = 0.00149215, Final residual = 9.26228e-07, No Iterations 162
time step continuity errors : sum local = 2.714e-10, global = 2.84763e-20, cumulative = 1.38135e-19
ExecutionTime = 9.58 s  ClockTime = 10 s

Time = 0.046875

Courant Number mean: 0.289538 max: 0.975017
smoothSolver:  Solving for Ux, Initial residual = 1.72924e-05, Final residual = 9.85566e-06, No Iterations 7
smoothSolver:  Solving for Uy, Initial residual = 5.02616e-05, Final residual = 9.60902e-06, No Iterations 21
DICPCG:  Solving for p, Initial residual = 0.00112795, Final residual = 5.17395e-05, No Iterations 48
time step continuity errors : sum local = 1.65973e-08, global = 5.14905e-20, cumulative = 1.89625e-19
DICPCG:  Solving for p, Initial residual = 0.00105413, Final residual = 9.43895e-07, No Iterations 159
time step continuity errors : sum local = 2.75968e-10, global = 2.64296e-19, cumulative = 4.53921e-19
ExecutionTime = 9.65 s  ClockTime = 10 s

Time = 0.0475

Courant Number mean: 0.289547 max: 0.975019
smoothSolver:  Solving for Ux, Initial residual = 1.56695e-05, Final residual = 9.52607e-06, No Iterations 6
smoothSolver:  Solving for Uy, Initial residual = 6.40234e-05, Final residual = 9.83581e-06, No Iterations 26
DICPCG:  Solving for p, Initial residual = 0.00123571, Final residual = 6.13402e-05, No Iterations 120
time step continuity errors : sum local = 1.7968e-08, global = -1.394e-19, cumulative = 3.14521e-19
DICPCG:  Solving for p, Initial residual = 0.00118241, Final residual = 8.67647e-07, No Iterations 165
time step continuity errors : sum local = 2.53656e-10, global = -2.68527e-20, cumulative = 2.87668e-19
ExecutionTime = 9.73 s  ClockTime = 10 s

Time = 0.048125

Courant Number mean: 0.289555 max: 0.975021
smoothSolver:  Solving for Ux, Initial residual = 1.65985e-05, Final residual = 9.93333e-06, No Iterations 6
smoothSolver:  Solving for Uy, Initial residual = 4.52134e-05, Final residual = 9.81877e-06, No Iterations 18
DICPCG:  Solving for p, Initial residual = 0.000979059, Final residual = 4.88736e-05, No Iterations 121
time step continuity errors : sum local = 1.43176e-08, global = -1.72359e-19, cumulative = 1.15309e-19
DICPCG:  Solving for p, Initial residual = 0.000925466, Final residual = 8.68122e-07, No Iterations 162
time step continuity errors : sum local = 2.53459e-10, global = -2.92801e-20, cumulative = 8.60294e-20
ExecutionTime = 9.8 s  ClockTime = 10 s

Time = 0.04875

Courant Number mean: 0.289562 max: 0.975021
smoothSolver:  Solving for Ux, Initial residual = 1.4024e-05, Final residual = 9.56113e-06, No Iterations 5
smoothSolver:  Solving for Uy, Initial residual = 4.39493e-05, Final residual = 9.57814e-06, No Iterations 21
DICPCG:  Solving for p, Initial residual = 0.000916764, Final residual = 3.63938e-05, No Iterations 126
time step continuity errors : sum local = 1.06554e-08, global = 1.07256e-19, cumulative = 1.93286e-19
DICPCG:  Solving for p, Initial residual = 0.000882695, Final residual = 8.9281e-07, No Iterations 160
time step continuity errors : sum local = 2.61101e-10, global = 1.058e-19, cumulative = 2.99086e-19
ExecutionTime = 9.88 s  ClockTime = 10 s

Time = 0.049375

Courant Number mean: 0.289569 max: 0.975023
smoothSolver:  Solving for Ux, Initial residual = 1.39192e-05, Final residual = 9.41507e-06, No Iterations 5
smoothSolver:  Solving for Uy, Initial residual = 3.75424e-05, Final residual = 9.93558e-06, No Iterations 18
DICPCG:  Solving for p, Initial residual = 0.000634157, Final residual = 3.07309e-05, No Iterations 48
time step continuity errors : sum local = 1.0237e-08, global = 5.51749e-20, cumulative = 3.54261e-19
DICPCG:  Solving for p, Initial residual = 0.000613735, Final residual = 8.91317e-07, No Iterations 157
time step continuity errors : sum local = 2.60305e-10, global = -6.48277e-20, cumulative = 2.89433e-19
ExecutionTime = 9.94 s  ClockTime = 10 s

Time = 0.05

Courant Number mean: 0.289575 max: 0.975022
smoothSolver:  Solving for Ux, Initial residual = 1.38327e-05, Final residual = 9.99198e-06, No Iterations 4
smoothSolver:  Solving for Uy, Initial residual = 5.08039e-05, Final residual = 9.94121e-06, No Iterations 23
DICPCG:  Solving for p, Initial residual = 0.000923519, Final residual = 4.09959e-05, No Iterations 129
time step continuity errors : sum local = 1.19988e-08, global = 1.75576e-19, cumulative = 4.65008e-19
DICPCG:  Solving for p, Initial residual = 0.000906597, Final residual = 9.96973e-07, No Iterations 161
time step continuity errors : sum local = 2.91386e-10, global = -4.10721e-20, cumulative = 4.23936e-19
ExecutionTime = 10.04 s  ClockTime = 10 s

Time = 0.050625

Courant Number mean: 0.289581 max: 0.975024
smoothSolver:  Solving for Ux, Initial residual = 1.45151e-05, Final residual = 9.4121e-06, No Iterations 5
smoothSolver:  Solving for Uy, Initial residual = 3.66009e-05, Final residual = 9.54832e-06, No Iterations 16
DICPCG:  Solving for p, Initial residual = 0.000631895, Final residual = 2.5957e-05, No Iterations 120
time step continuity errors : sum local = 7.59707e-09, global = -1.38251e-19, cumulative = 2.85686e-19
DICPCG:  Solving for p, Initial residual = 0.000605862, Final residual = 9.74546e-07, No Iterations 156
time step continuity errors : sum local = 2.84767e-10, global = 3.8243e-20, cumulative = 3.23929e-19
ExecutionTime = 10.12 s  ClockTime = 11 s

Time = 0.05125

Courant Number mean: 0.289586 max: 0.975024
smoothSolver:  Solving for Ux, Initial residual = 1.2343e-05, Final residual = 9.66984e-06, No Iterations 3
smoothSolver:  Solving for Uy, Initial residual = 3.36533e-05, Final residual = 9.43891e-06, No Iterations 18
DICPCG:  Solving for p, Initial residual = 0.000621377, Final residual = 2.67527e-05, No Iterations 118
time step continuity errors : sum local = 7.81465e-09, global = 2.07615e-19, cumulative = 5.31544e-19
DICPCG:  Solving for p, Initial residual = 0.000609393, Final residual = 9.64608e-07, No Iterations 146
time step continuity errors : sum local = 2.81773e-10, global = 6.02404e-20, cumulative = 5.91784e-19
ExecutionTime = 10.19 s  ClockTime = 11 s

Time = 0.051875

Courant Number mean: 0.289591 max: 0.975025
smoothSolver:  Solving for Ux, Initial residual = 1.22837e-05, Final residual = 9.57369e-06, No Iterations 3
smoothSolver:  Solving for Uy, Initial residual = 3.04614e-05, Final residual = 9.5452e-06, No Iterations 16
DICPCG:  Solving for p, Initial residual = 0.000519212, Final residual = 2.52215e-05, No Iterations 47
time step continuity errors : sum local = 7.66126e-09, global = 1.36882e-20, cumulative = 6.05473e-19
DICPCG:  Solving for p, Initial residual = 0.000509841, Final residual = 8.63126e-07, No Iterations 98
time step continuity errors : sum local = 2.70999e-10, global = 5.22639e-20, cumulative = 6.57737e-19
ExecutionTime = 10.23 s  ClockTime = 11 s

Time = 0.0525

Courant Number mean: 0.289595 max: 0.975025
smoothSolver:  Solving for Ux, Initial residual = 1.20502e-05, Final residual = 9.44948e-06, No Iterations 3
smoothSolver:  Solving for Uy, Initial residual = 2.8099e-05, Final residual = 9.47097e-06, No Iterations 15
DICPCG:  Solving for p, Initial residual = 0.000483699, Final residual = 2.31687e-05, No Iterations 37
time step continuity errors : sum local = 7.23032e-09, global = 2.47601e-20, cumulative = 6.82497e-19
DICPCG:  Solving for p, Initial residual = 0.00047492, Final residual = 9.81975e-07, No Iterations 147
time step continuity errors : sum local = 2.86942e-10, global = 6.61908e-20, cumulative = 7.48687e-19
ExecutionTime = 10.28 s  ClockTime = 11 s

Time = 0.053125

Courant Number mean: 0.289599 max: 0.975025
smoothSolver:  Solving for Ux, Initial residual = 1.22458e-05, Final residual = 9.61759e-06, No Iterations 3
smoothSolver:  Solving for Uy, Initial residual = 2.67744e-05, Final residual = 9.54731e-06, No Iterations 14
DICPCG:  Solving for p, Initial residual = 0.000472283, Final residual = 2.1906e-05, No Iterations 119
time step continuity errors : sum local = 6.4406e-09, global = 2.45473e-20, cumulative = 7.73235e-19
DICPCG:  Solving for p, Initial residual = 0.000463133, Final residual = 9.33258e-07, No Iterations 154
time step continuity errors : sum local = 2.72548e-10, global = -3.05382e-19, cumulative = 4.67853e-19
ExecutionTime = 10.35 s  ClockTime = 11 s

Time = 0.05375

Courant Number mean: 0.289602 max: 0.975026
smoothSolver:  Solving for Ux, Initial residual = 1.12133e-05, Final residual = 9.43751e-06, No Iterations 2
smoothSolver:  Solving for Uy, Initial residual = 2.93161e-05, Final residual = 9.46327e-06, No Iterations 16
DICPCG:  Solving for p, Initial residual = 0.000530493, Final residual = 2.53515e-05, No Iterations 117
time step continuity errors : sum local = 7.40371e-09, global = 8.47569e-21, cumulative = 4.76329e-19
DICPCG:  Solving for p, Initial residual = 0.000522536, Final residual = 9.46729e-07, No Iterations 150
time step continuity errors : sum local = 2.77412e-10, global = -2.08483e-19, cumulative = 2.67845e-19
ExecutionTime = 10.42 s  ClockTime = 11 s

Time = 0.054375

Courant Number mean: 0.289606 max: 0.975027
smoothSolver:  Solving for Ux, Initial residual = 1.13413e-05, Final residual = 9.50525e-06, No Iterations 2
smoothSolver:  Solving for Uy, Initial residual = 2.6451e-05, Final residual = 9.41169e-06, No Iterations 14
DICPCG:  Solving for p, Initial residual = 0.00045138, Final residual = 2.08048e-05, No Iterations 48
time step continuity errors : sum local = 6.44932e-09, global = 4.90739e-20, cumulative = 3.16919e-19
DICPCG:  Solving for p, Initial residual = 0.000445009, Final residual = 7.27992e-07, No Iterations 154
time step continuity errors : sum local = 2.12832e-10, global = -2.50724e-20, cumulative = 2.91847e-19
ExecutionTime = 10.49 s  ClockTime = 11 s

Time = 0.055

Courant Number mean: 0.289609 max: 0.975027
smoothSolver:  Solving for Ux, Initial residual = 1.13598e-05, Final residual = 9.55972e-06, No Iterations 2
smoothSolver:  Solving for Uy, Initial residual = 2.43101e-05, Final residual = 9.85688e-06, No Iterations 12
DICPCG:  Solving for p, Initial residual = 0.000398865, Final residual = 1.95117e-05, No Iterations 41
time step continuity errors : sum local = 6.3089e-09, global = -1.07396e-20, cumulative = 2.81107e-19
DICPCG:  Solving for p, Initial residual = 0.000389849, Final residual = 8.96322e-07, No Iterations 138
time step continuity errors : sum local = 2.621e-10, global = -4.52596e-20, cumulative = 2.35848e-19
ExecutionTime = 10.54 s  ClockTime = 11 s

Time = 0.055625

Courant Number mean: 0.289612 max: 0.975027
smoothSolver:  Solving for Ux, Initial residual = 1.07424e-05, Final residual = 9.78912e-06, No Iterations 1
smoothSolver:  Solving for Uy, Initial residual = 3.3083e-05, Final residual = 9.88811e-06, No Iterations 17
DICPCG:  Solving for p, Initial residual = 0.000632307, Final residual = 2.97332e-05, No Iterations 119
time step continuity errors : sum local = 8.70889e-09, global = -2.88085e-19, cumulative = -5.22376e-20
DICPCG:  Solving for p, Initial residual = 0.000626682, Final residual = 9.40816e-07, No Iterations 157
time step continuity errors : sum local = 2.75927e-10, global = -9.87857e-20, cumulative = -1.51023e-19
ExecutionTime = 10.61 s  ClockTime = 11 s

Time = 0.05625

Courant Number mean: 0.289614 max: 0.975028
smoothSolver:  Solving for Ux, Initial residual = 1.15252e-05, Final residual = 9.47463e-06, No Iterations 2
smoothSolver:  Solving for Uy, Initial residual = 2.43504e-05, Final residual = 9.69168e-06, No Iterations 11
DICPCG:  Solving for p, Initial residual = 0.000389498, Final residual = 1.9228e-05, No Iterations 39
time step continuity errors : sum local = 5.95884e-09, global = -1.14502e-19, cumulative = -2.65525e-19
DICPCG:  Solving for p, Initial residual = 0.000376482, Final residual = 9.53047e-07, No Iterations 155
time step continuity errors : sum local = 2.78924e-10, global = 2.35367e-19, cumulative = -3.01586e-20
ExecutionTime = 10.66 s  ClockTime = 11 s

Time = 0.056875

Courant Number mean: 0.289617 max: 0.975028
smoothSolver:  Solving for Ux, Initial residual = 1.01988e-05, Final residual = 9.2903e-06, No Iterations 1
smoothSolver:  Solving for Uy, Initial residual = 2.75026e-05, Final residual = 9.44108e-06, No Iterations 15
DICPCG:  Solving for p, Initial residual = 0.000532199, Final residual = 2.46627e-05, No Iterations 117
time step continuity errors : sum local = 7.22172e-09, global = 5.12559e-20, cumulative = 2.10973e-20
DICPCG:  Solving for p, Initial residual = 0.000525012, Final residual = 9.05092e-07, No Iterations 145
time step continuity errors : sum local = 2.6494e-10, global = -1.3188e-19, cumulative = -1.10783e-19
ExecutionTime = 10.73 s  ClockTime = 11 s

Time = 0.0575

Courant Number mean: 0.289619 max: 0.975029
smoothSolver:  Solving for Ux, Initial residual = 1.06901e-05, Final residual = 9.63639e-06, No Iterations 1
smoothSolver:  Solving for Uy, Initial residual = 2.40056e-05, Final residual = 9.96155e-06, No Iterations 11
DICPCG:  Solving for p, Initial residual = 0.000420822, Final residual = 2.05086e-05, No Iterations 40
time step continuity errors : sum local = 6.75852e-09, global = -1.37824e-19, cumulative = -2.48607e-19
DICPCG:  Solving for p, Initial residual = 0.000414505, Final residual = 8.90581e-07, No Iterations 155
time step continuity errors : sum local = 2.60224e-10, global = -8.438e-20, cumulative = -3.32987e-19
ExecutionTime = 10.78 s  ClockTime = 11 s

Time = 0.058125

Courant Number mean: 0.289621 max: 0.975029
smoothSolver:  Solving for Ux, Initial residual = 1.11373e-05, Final residual = 9.30808e-06, No Iterations 2
smoothSolver:  Solving for Uy, Initial residual = 2.24791e-05, Final residual = 9.97613e-06, No Iterations 10
DICPCG:  Solving for p, Initial residual = 0.00036416, Final residual = 1.81166e-05, No Iterations 124
time step continuity errors : sum local = 5.31936e-09, global = -1.29239e-19, cumulative = -4.62227e-19
DICPCG:  Solving for p, Initial residual = 0.000354856, Final residual = 9.5125e-07, No Iterations 156
time step continuity errors : sum local = 2.77895e-10, global = 4.13772e-20, cumulative = -4.2085e-19
ExecutionTime = 10.85 s  ClockTime = 11 s

Time = 0.05875

Courant Number mean: 0.289623 max: 0.975029
smoothSolver:  Solving for Ux, Initial residual = 9.80145e-06, Final residual = 9.80145e-06, No Iterations 0
smoothSolver:  Solving for Uy, Initial residual = 2.49214e-05, Final residual = 9.57746e-06, No Iterations 13
DICPCG:  Solving for p, Initial residual = 0.000489607, Final residual = 2.28341e-05, No Iterations 117
time step continuity errors : sum local = 6.68241e-09, global = 1.281e-19, cumulative = -2.9275e-19
DICPCG:  Solving for p, Initial residual = 0.000484926, Final residual = 9.38262e-07, No Iterations 150
time step continuity errors : sum local = 2.75043e-10, global = -1.64935e-21, cumulative = -2.94399e-19
ExecutionTime = 10.92 s  ClockTime = 11 s

Time = 0.059375

Courant Number mean: 0.289625 max: 0.97503
smoothSolver:  Solving for Ux, Initial residual = 1.02255e-05, Final residual = 9.25785e-06, No Iterations 1
smoothSolver:  Solving for Uy, Initial residual = 2.19558e-05, Final residual = 9.99005e-06, No Iterations 10
DICPCG:  Solving for p, Initial residual = 0.000337525, Final residual = 1.56179e-05, No Iterations 49
time step continuity errors : sum local = 5.15469e-09, global = -1.48829e-19, cumulative = -4.43228e-19
DICPCG:  Solving for p, Initial residual = 0.000333157, Final residual = 9.42623e-07, No Iterations 151
time step continuity errors : sum local = 2.75291e-10, global = 3.75364e-20, cumulative = -4.05692e-19
ExecutionTime = 10.97 s  ClockTime = 11 s

Time = 0.06

Courant Number mean: 0.289627 max: 0.97503
smoothSolver:  Solving for Ux, Initial residual = 1.06396e-05, Final residual = 9.6716e-06, No Iterations 1
smoothSolver:  Solving for Uy, Initial residual = 2.06719e-05, Final residual = 9.98376e-06, No Iterations 9
DICPCG:  Solving for p, Initial residual = 0.000346721, Final residual = 1.71899e-05, No Iterations 121
time step continuity errors : sum local = 5.05479e-09, global = 8.4943e-20, cumulative = -3.20749e-19
DICPCG:  Solving for p, Initial residual = 0.000339476, Final residual = 9.7296e-07, No Iterations 155
time step continuity errors : sum local = 2.84234e-10, global = 8.03446e-20, cumulative = -2.40404e-19
ExecutionTime = 11.04 s  ClockTime = 11 s

Time = 0.060625

Courant Number mean: 0.289628 max: 0.975029
smoothSolver:  Solving for Ux, Initial residual = 9.58067e-06, Final residual = 9.58067e-06, No Iterations 0
smoothSolver:  Solving for Uy, Initial residual = 2.29142e-05, Final residual = 9.46591e-06, No Iterations 12
DICPCG:  Solving for p, Initial residual = 0.000436003, Final residual = 2.08335e-05, No Iterations 117
time step continuity errors : sum local = 6.08548e-09, global = 6.98605e-20, cumulative = -1.70544e-19
DICPCG:  Solving for p, Initial residual = 0.000432263, Final residual = 9.38272e-07, No Iterations 153
time step continuity errors : sum local = 2.74834e-10, global = 1.48864e-20, cumulative = -1.55657e-19
ExecutionTime = 11.11 s  ClockTime = 12 s

Time = 0.06125

Courant Number mean: 0.28963 max: 0.97503
smoothSolver:  Solving for Ux, Initial residual = 9.89858e-06, Final residual = 9.89858e-06, No Iterations 0
smoothSolver:  Solving for Uy, Initial residual = 2.12286e-05, Final residual = 9.78928e-06, No Iterations 10
DICPCG:  Solving for p, Initial residual = 0.000368298, Final residual = 1.83369e-05, No Iterations 44
time step continuity errors : sum local = 6.01802e-09, global = -1.22565e-19, cumulative = -2.78223e-19
DICPCG:  Solving for p, Initial residual = 0.000368385, Final residual = 8.12372e-07, No Iterations 145
time step continuity errors : sum local = 2.37593e-10, global = 4.52197e-20, cumulative = -2.33003e-19
ExecutionTime = 11.16 s  ClockTime = 12 s

Time = 0.061875

Courant Number mean: 0.289631 max: 0.975031
smoothSolver:  Solving for Ux, Initial residual = 1.07784e-05, Final residual = 9.71253e-06, No Iterations 1
smoothSolver:  Solving for Uy, Initial residual = 2.05666e-05, Final residual = 9.63573e-06, No Iterations 9
DICPCG:  Solving for p, Initial residual = 0.000361632, Final residual = 1.73686e-05, No Iterations 122
time step continuity errors : sum local = 5.09568e-09, global = -8.48528e-20, cumulative = -3.17856e-19
DICPCG:  Solving for p, Initial residual = 0.000353305, Final residual = 8.53159e-07, No Iterations 156
time step continuity errors : sum local = 2.49123e-10, global = 1.18645e-19, cumulative = -1.99211e-19
ExecutionTime = 11.23 s  ClockTime = 12 s

Time = 0.0625

Courant Number mean: 0.289632 max: 0.97503
smoothSolver:  Solving for Ux, Initial residual = 9.43586e-06, Final residual = 9.43586e-06, No Iterations 0
smoothSolver:  Solving for Uy, Initial residual = 2.19932e-05, Final residual = 9.62599e-06, No Iterations 11
DICPCG:  Solving for p, Initial residual = 0.000400701, Final residual = 1.85804e-05, No Iterations 116
time step continuity errors : sum local = 5.42978e-09, global = 5.41054e-20, cumulative = -1.45105e-19
DICPCG:  Solving for p, Initial residual = 0.000396724, Final residual = 8.6452e-07, No Iterations 148
time step continuity errors : sum local = 2.5375e-10, global = -2.4924e-19, cumulative = -3.94346e-19
ExecutionTime = 11.33 s  ClockTime = 12 s

Time = 0.063125

Courant Number mean: 0.289634 max: 0.975031
smoothSolver:  Solving for Ux, Initial residual = 9.6696e-06, Final residual = 9.6696e-06, No Iterations 0
smoothSolver:  Solving for Uy, Initial residual = 2.02093e-05, Final residual = 9.92982e-06, No Iterations 9
DICPCG:  Solving for p, Initial residual = 0.000333909, Final residual = 1.6675e-05, No Iterations 45
time step continuity errors : sum local = 5.54875e-09, global = 2.75722e-19, cumulative = -1.18624e-19
DICPCG:  Solving for p, Initial residual = 0.000332372, Final residual = 8.21276e-07, No Iterations 144
time step continuity errors : sum local = 2.39844e-10, global = -4.37552e-19, cumulative = -5.56176e-19
ExecutionTime = 11.38 s  ClockTime = 12 s

Time = 0.06375

Courant Number mean: 0.289635 max: 0.975031
smoothSolver:  Solving for Ux, Initial residual = 1.06263e-05, Final residual = 9.58489e-06, No Iterations 1
smoothSolver:  Solving for Uy, Initial residual = 1.92813e-05, Final residual = 9.74299e-06, No Iterations 8
DICPCG:  Solving for p, Initial residual = 0.000314707, Final residual = 1.46887e-05, No Iterations 125
time step continuity errors : sum local = 4.30556e-09, global = 2.33172e-20, cumulative = -5.32858e-19
DICPCG:  Solving for p, Initial residual = 0.000307933, Final residual = 8.16633e-07, No Iterations 156
time step continuity errors : sum local = 2.38484e-10, global = 3.06206e-19, cumulative = -2.26652e-19
ExecutionTime = 11.45 s  ClockTime = 12 s

Time = 0.064375

Courant Number mean: 0.289636 max: 0.975031
smoothSolver:  Solving for Ux, Initial residual = 9.16362e-06, Final residual = 9.16362e-06, No Iterations 0
smoothSolver:  Solving for Uy, Initial residual = 2.09465e-05, Final residual = 9.79736e-06, No Iterations 10
DICPCG:  Solving for p, Initial residual = 0.000371314, Final residual = 1.61951e-05, No Iterations 116
time step continuity errors : sum local = 4.73834e-09, global = 1.83213e-19, cumulative = -4.34389e-20
DICPCG:  Solving for p, Initial residual = 0.000367019, Final residual = 9.22966e-07, No Iterations 147
time step continuity errors : sum local = 2.70074e-10, global = -1.08127e-19, cumulative = -1.51566e-19
ExecutionTime = 11.52 s  ClockTime = 12 s

Time = 0.065

Courant Number mean: 0.289637 max: 0.975031
smoothSolver:  Solving for Ux, Initial residual = 9.40269e-06, Final residual = 9.40269e-06, No Iterations 0
smoothSolver:  Solving for Uy, Initial residual = 1.94053e-05, Final residual = 9.55369e-06, No Iterations 9
DICPCG:  Solving for p, Initial residual = 0.000323201, Final residual = 1.59501e-05, No Iterations 46
time step continuity errors : sum local = 5.37028e-09, global = 3.5662e-20, cumulative = -1.15904e-19
DICPCG:  Solving for p, Initial residual = 0.000321669, Final residual = 9.75692e-07, No Iterations 143
time step continuity errors : sum local = 2.85021e-10, global = -1.11752e-19, cumulative = -2.27656e-19
ExecutionTime = 11.57 s  ClockTime = 12 s

Time = 0.065625

Courant Number mean: 0.289638 max: 0.975032
smoothSolver:  Solving for Ux, Initial residual = 1.0418e-05, Final residual = 9.40629e-06, No Iterations 1
smoothSolver:  Solving for Uy, Initial residual = 1.87464e-05, Final residual = 9.41999e-06, No Iterations 8
DICPCG:  Solving for p, Initial residual = 0.000304435, Final residual = 1.52177e-05, No Iterations 127
time step continuity errors : sum local = 4.45559e-09, global = -3.56794e-20, cumulative = -2.63335e-19
DICPCG:  Solving for p, Initial residual = 0.000298299, Final residual = 8.78584e-07, No Iterations 156
time step continuity errors : sum local = 2.56656e-10, global = -1.64011e-19, cumulative = -4.27346e-19
ExecutionTime = 11.64 s  ClockTime = 12 s

Time = 0.06625

Courant Number mean: 0.28964 max: 0.975031
smoothSolver:  Solving for Ux, Initial residual = 8.93854e-06, Final residual = 8.93854e-06, No Iterations 0
smoothSolver:  Solving for Uy, Initial residual = 2.0292e-05, Final residual = 9.42787e-06, No Iterations 10
DICPCG:  Solving for p, Initial residual = 0.0003674, Final residual = 1.59705e-05, No Iterations 117
time step continuity errors : sum local = 4.67197e-09, global = -4.23552e-20, cumulative = -4.69702e-19
DICPCG:  Solving for p, Initial residual = 0.000363225, Final residual = 8.90042e-07, No Iterations 146
time step continuity errors : sum local = 2.60365e-10, global = -2.53463e-19, cumulative = -7.23164e-19
ExecutionTime = 11.71 s  ClockTime = 12 s

Time = 0.066875

Courant Number mean: 0.289641 max: 0.975032
smoothSolver:  Solving for Ux, Initial residual = 9.1776e-06, Final residual = 9.1776e-06, No Iterations 0
smoothSolver:  Solving for Uy, Initial residual = 1.84737e-05, Final residual = 9.74786e-06, No Iterations 8
DICPCG:  Solving for p, Initial residual = 0.000286936, Final residual = 1.40174e-05, No Iterations 47
time step continuity errors : sum local = 4.77622e-09, global = 1.08254e-19, cumulative = -6.14911e-19
DICPCG:  Solving for p, Initial residual = 0.000285396, Final residual = 9.14041e-07, No Iterations 146
time step continuity errors : sum local = 2.67531e-10, global = -7.12413e-20, cumulative = -6.86152e-19
ExecutionTime = 11.76 s  ClockTime = 12 s

Time = 0.0675

Courant Number mean: 0.289642 max: 0.975032
smoothSolver:  Solving for Ux, Initial residual = 1.00836e-05, Final residual = 9.11337e-06, No Iterations 1
smoothSolver:  Solving for Uy, Initial residual = 1.74774e-05, Final residual = 9.49008e-06, No Iterations 7
DICPCG:  Solving for p, Initial residual = 0.000254754, Final residual = 1.16601e-05, No Iterations 131
time step continuity errors : sum local = 3.40533e-09, global = -4.53095e-20, cumulative = -7.31461e-19
DICPCG:  Solving for p, Initial residual = 0.000250266, Final residual = 8.8515e-07, No Iterations 151
time step continuity errors : sum local = 2.58952e-10, global = 1.6224e-19, cumulative = -5.69221e-19
ExecutionTime = 11.83 s  ClockTime = 12 s

Time = 0.068125

Courant Number mean: 0.289643 max: 0.975031
smoothSolver:  Solving for Ux, Initial residual = 8.6804e-06, Final residual = 8.6804e-06, No Iterations 0
smoothSolver:  Solving for Uy, Initial residual = 1.95793e-05, Final residual = 9.85688e-06, No Iterations 9
[...]
DICPCG:  Solving for p, Initial residual = 8.53636e-07, Final residual = 8.53636e-07, No Iterations 0
time step continuity errors : sum local = 2.53058e-10, global = -9.79052e-21, cumulative = 3.66304e-18
ExecutionTime = 24.31 s  ClockTime = 25 s

Time = 0.48375

Courant Number mean: 0.289738 max: 0.975039
smoothSolver:  Solving for Ux, Initial residual = 8.21816e-07, Final residual = 8.21816e-07, No Iterations 0
smoothSolver:  Solving for Uy, Initial residual = 2.33589e-06, Final residual = 2.33589e-06, No Iterations 0
DICPCG:  Solving for p, Initial residual = 1.04575e-06, Final residual = 5.73599e-07, No Iterations 1
time step continuity errors : sum local = 1.71295e-10, global = -1.75057e-19, cumulative = 3.48798e-18
DICPCG:  Solving for p, Initial residual = 8.61556e-07, Final residual = 8.61556e-07, No Iterations 0
time step continuity errors : sum local = 2.55376e-10, global = -6.82609e-20, cumulative = 3.41972e-18
ExecutionTime = 24.32 s  ClockTime = 25 s

Time = 0.484375

Courant Number mean: 0.289738 max: 0.975039
smoothSolver:  Solving for Ux, Initial residual = 8.192e-07, Final residual = 8.192e-07, No Iterations 0
smoothSolver:  Solving for Uy, Initial residual = 2.33107e-06, Final residual = 2.33107e-06, No Iterations 0
DICPCG:  Solving for p, Initial residual = 1.05742e-06, Final residual = 5.81617e-07, No Iterations 1
time step continuity errors : sum local = 1.73637e-10, global = -2.01946e-21, cumulative = 3.4177e-18
DICPCG:  Solving for p, Initial residual = 8.78643e-07, Final residual = 8.78643e-07, No Iterations 0
time step continuity errors : sum local = 2.60366e-10, global = 2.2591e-19, cumulative = 3.64361e-18
ExecutionTime = 24.33 s  ClockTime = 25 s

Time = 0.485

Courant Number mean: 0.289738 max: 0.975039
smoothSolver:  Solving for Ux, Initial residual = 8.16577e-07, Final residual = 8.16577e-07, No Iterations 0
smoothSolver:  Solving for Uy, Initial residual = 2.32605e-06, Final residual = 2.32605e-06, No Iterations 0
DICPCG:  Solving for p, Initial residual = 1.08136e-06, Final residual = 5.94149e-07, No Iterations 1
time step continuity errors : sum local = 1.77294e-10, global = -1.47139e-19, cumulative = 3.49647e-18
DICPCG:  Solving for p, Initial residual = 9.02885e-07, Final residual = 9.02885e-07, No Iterations 0
time step continuity errors : sum local = 2.67441e-10, global = -7.89367e-20, cumulative = 3.41753e-18
ExecutionTime = 24.33 s  ClockTime = 25 s

Time = 0.485625

Courant Number mean: 0.289738 max: 0.975039
smoothSolver:  Solving for Ux, Initial residual = 8.13927e-07, Final residual = 8.13927e-07, No Iterations 0
smoothSolver:  Solving for Uy, Initial residual = 2.32097e-06, Final residual = 2.32097e-06, No Iterations 0
DICPCG:  Solving for p, Initial residual = 1.11373e-06, Final residual = 6.10286e-07, No Iterations 1
time step continuity errors : sum local = 1.82e-10, global = 1.10713e-19, cumulative = 3.52824e-18
DICPCG:  Solving for p, Initial residual = 9.31997e-07, Final residual = 9.31997e-07, No Iterations 0
time step continuity errors : sum local = 2.75936e-10, global = 3.14033e-20, cumulative = 3.55965e-18
ExecutionTime = 24.34 s  ClockTime = 25 s

Time = 0.48625

Courant Number mean: 0.289738 max: 0.975039
smoothSolver:  Solving for Ux, Initial residual = 8.11281e-07, Final residual = 8.11281e-07, No Iterations 0
smoothSolver:  Solving for Uy, Initial residual = 2.31574e-06, Final residual = 2.31574e-06, No Iterations 0
DICPCG:  Solving for p, Initial residual = 1.15229e-06, Final residual = 6.27691e-07, No Iterations 1
time step continuity errors : sum local = 1.87074e-10, global = -7.38828e-22, cumulative = 3.55891e-18
DICPCG:  Solving for p, Initial residual = 9.63276e-07, Final residual = 9.63276e-07, No Iterations 0
time step continuity errors : sum local = 2.85059e-10, global = 7.66498e-20, cumulative = 3.63556e-18
ExecutionTime = 24.34 s  ClockTime = 25 s

Time = 0.486875

Courant Number mean: 0.289738 max: 0.975039
smoothSolver:  Solving for Ux, Initial residual = 8.08607e-07, Final residual = 8.08607e-07, No Iterations 0
smoothSolver:  Solving for Uy, Initial residual = 2.31044e-06, Final residual = 2.31044e-06, No Iterations 0
DICPCG:  Solving for p, Initial residual = 1.19297e-06, Final residual = 6.4594e-07, No Iterations 1
time step continuity errors : sum local = 1.92391e-10, global = -1.89572e-19, cumulative = 3.44599e-18
DICPCG:  Solving for p, Initial residual = 9.95519e-07, Final residual = 9.95519e-07, No Iterations 0
time step continuity errors : sum local = 2.94462e-10, global = -1.07976e-19, cumulative = 3.33801e-18
ExecutionTime = 24.35 s  ClockTime = 25 s

Time = 0.4875

Courant Number mean: 0.289738 max: 0.975039
smoothSolver:  Solving for Ux, Initial residual = 8.05948e-07, Final residual = 8.05948e-07, No Iterations 0
smoothSolver:  Solving for Uy, Initial residual = 2.30506e-06, Final residual = 2.30506e-06, No Iterations 0
DICPCG:  Solving for p, Initial residual = 1.23508e-06, Final residual = 6.62996e-07, No Iterations 1
time step continuity errors : sum local = 1.97358e-10, global = -2.40887e-19, cumulative = 3.09712e-18
DICPCG:  Solving for p, Initial residual = 1.02584e-06, Final residual = 7.44062e-07, No Iterations 1
time step continuity errors : sum local = 2.21013e-10, global = 3.09812e-20, cumulative = 3.12811e-18
ExecutionTime = 24.39 s  ClockTime = 25 s

Time = 0.488125

Courant Number mean: 0.289738 max: 0.975039
smoothSolver:  Solving for Ux, Initial residual = 8.03051e-07, Final residual = 8.03051e-07, No Iterations 0
smoothSolver:  Solving for Uy, Initial residual = 2.29574e-06, Final residual = 2.29574e-06, No Iterations 0
DICPCG:  Solving for p, Initial residual = 9.74155e-07, Final residual = 9.74155e-07, No Iterations 0
time step continuity errors : sum local = 2.88193e-10, global = 3.6756e-21, cumulative = 3.13178e-18
DICPCG:  Solving for p, Initial residual = 1.11436e-06, Final residual = 7.17999e-07, No Iterations 1
time step continuity errors : sum local = 2.13384e-10, global = 3.18622e-20, cumulative = 3.16364e-18
ExecutionTime = 24.39 s  ClockTime = 25 s

Time = 0.48875

Courant Number mean: 0.289738 max: 0.975039
smoothSolver:  Solving for Ux, Initial residual = 8.00497e-07, Final residual = 8.00497e-07, No Iterations 0
smoothSolver:  Solving for Uy, Initial residual = 2.29087e-06, Final residual = 2.29087e-06, No Iterations 0
DICPCG:  Solving for p, Initial residual = 1.12069e-06, Final residual = 7.12496e-07, No Iterations 1
time step continuity errors : sum local = 2.11762e-10, global = -5.68752e-20, cumulative = 3.10677e-18
DICPCG:  Solving for p, Initial residual = 9.46192e-07, Final residual = 9.46192e-07, No Iterations 0
time step continuity errors : sum local = 2.79993e-10, global = -1.84127e-19, cumulative = 2.92264e-18
ExecutionTime = 24.4 s  ClockTime = 25 s

Time = 0.489375

Courant Number mean: 0.289738 max: 0.975039
smoothSolver:  Solving for Ux, Initial residual = 7.97665e-07, Final residual = 7.97665e-07, No Iterations 0
smoothSolver:  Solving for Uy, Initial residual = 2.28419e-06, Final residual = 2.28419e-06, No Iterations 0
DICPCG:  Solving for p, Initial residual = 1.1035e-06, Final residual = 7.15978e-07, No Iterations 1
time step continuity errors : sum local = 2.12758e-10, global = 4.58718e-20, cumulative = 2.96851e-18
DICPCG:  Solving for p, Initial residual = 1.09295e-06, Final residual = 7.10065e-07, No Iterations 1
time step continuity errors : sum local = 2.11016e-10, global = 1.5571e-19, cumulative = 3.12422e-18
ExecutionTime = 24.4 s  ClockTime = 26 s

Time = 0.49

Courant Number mean: 0.289738 max: 0.975039
smoothSolver:  Solving for Ux, Initial residual = 7.94898e-07, Final residual = 7.94898e-07, No Iterations 0
smoothSolver:  Solving for Uy, Initial residual = 2.27567e-06, Final residual = 2.27567e-06, No Iterations 0
DICPCG:  Solving for p, Initial residual = 9.41514e-07, Final residual = 9.41514e-07, No Iterations 0
time step continuity errors : sum local = 2.7859e-10, global = 8.79163e-20, cumulative = 3.21214e-18
DICPCG:  Solving for p, Initial residual = 1.0818e-06, Final residual = 6.98249e-07, No Iterations 1
time step continuity errors : sum local = 2.07545e-10, global = 2.76883e-20, cumulative = 3.23983e-18
ExecutionTime = 24.41 s  ClockTime = 26 s

Time = 0.490625

Courant Number mean: 0.289738 max: 0.975039
smoothSolver:  Solving for Ux, Initial residual = 7.92407e-07, Final residual = 7.92407e-07, No Iterations 0
smoothSolver:  Solving for Uy, Initial residual = 2.27079e-06, Final residual = 2.27079e-06, No Iterations 0
DICPCG:  Solving for p, Initial residual = 1.08168e-06, Final residual = 6.84564e-07, No Iterations 1
time step continuity errors : sum local = 2.03535e-10, global = 2.27838e-20, cumulative = 3.26261e-18
DICPCG:  Solving for p, Initial residual = 9.07978e-07, Final residual = 9.07978e-07, No Iterations 0
time step continuity errors : sum local = 2.68764e-10, global = -7.79042e-20, cumulative = 3.18471e-18
ExecutionTime = 24.41 s  ClockTime = 26 s

Time = 0.49125

Courant Number mean: 0.289738 max: 0.975039
smoothSolver:  Solving for Ux, Initial residual = 7.89661e-07, Final residual = 7.89661e-07, No Iterations 0
smoothSolver:  Solving for Uy, Initial residual = 2.26449e-06, Final residual = 2.26449e-06, No Iterations 0
DICPCG:  Solving for p, Initial residual = 1.05764e-06, Final residual = 6.71156e-07, No Iterations 1
time step continuity errors : sum local = 1.99602e-10, global = 5.37529e-20, cumulative = 3.23846e-18
DICPCG:  Solving for p, Initial residual = 1.02595e-06, Final residual = 6.68457e-07, No Iterations 1
time step continuity errors : sum local = 1.98803e-10, global = -2.94523e-19, cumulative = 2.94394e-18
ExecutionTime = 24.42 s  ClockTime = 26 s

Time = 0.491875

Courant Number mean: 0.289738 max: 0.975039
smoothSolver:  Solving for Ux, Initial residual = 7.87056e-07, Final residual = 7.87056e-07, No Iterations 0
smoothSolver:  Solving for Uy, Initial residual = 2.25629e-06, Final residual = 2.25629e-06, No Iterations 0
DICPCG:  Solving for p, Initial residual = 8.81582e-07, Final residual = 8.81582e-07, No Iterations 0
time step continuity errors : sum local = 2.61028e-10, global = 7.20724e-20, cumulative = 3.01601e-18
DICPCG:  Solving for p, Initial residual = 1.01044e-06, Final residual = 6.50391e-07, No Iterations 1
time step continuity errors : sum local = 1.93514e-10, global = -3.91719e-20, cumulative = 2.97684e-18
ExecutionTime = 24.43 s  ClockTime = 26 s

Time = 0.4925

Courant Number mean: 0.289738 max: 0.975039
smoothSolver:  Solving for Ux, Initial residual = 7.84667e-07, Final residual = 7.84667e-07, No Iterations 0
smoothSolver:  Solving for Uy, Initial residual = 2.25147e-06, Final residual = 2.25147e-06, No Iterations 0
DICPCG:  Solving for p, Initial residual = 1.00482e-06, Final residual = 6.37894e-07, No Iterations 1
time step continuity errors : sum local = 1.89857e-10, global = -1.02417e-19, cumulative = 2.87442e-18
DICPCG:  Solving for p, Initial residual = 8.4376e-07, Final residual = 8.4376e-07, No Iterations 0
time step continuity errors : sum local = 2.49965e-10, global = -2.4239e-19, cumulative = 2.63203e-18
ExecutionTime = 24.43 s  ClockTime = 26 s

Time = 0.493125

Courant Number mean: 0.289738 max: 0.975039
smoothSolver:  Solving for Ux, Initial residual = 7.82046e-07, Final residual = 7.82046e-07, No Iterations 0
smoothSolver:  Solving for Uy, Initial residual = 2.24547e-06, Final residual = 2.24547e-06, No Iterations 0
DICPCG:  Solving for p, Initial residual = 9.80631e-07, Final residual = 9.80631e-07, No Iterations 0
time step continuity errors : sum local = 2.89928e-10, global = 6.33572e-20, cumulative = 2.69539e-18
DICPCG:  Solving for p, Initial residual = 1.05976e-06, Final residual = 5.99515e-07, No Iterations 1
time step continuity errors : sum local = 1.78644e-10, global = 1.3621e-19, cumulative = 2.8316e-18
ExecutionTime = 24.44 s  ClockTime = 26 s

Time = 0.49375

Courant Number mean: 0.289738 max: 0.975039
smoothSolver:  Solving for Ux, Initial residual = 7.798e-07, Final residual = 7.798e-07, No Iterations 0
smoothSolver:  Solving for Uy, Initial residual = 2.24109e-06, Final residual = 2.24109e-06, No Iterations 0
DICPCG:  Solving for p, Initial residual = 9.88318e-07, Final residual = 9.88318e-07, No Iterations 0
time step continuity errors : sum local = 2.92171e-10, global = 1.41155e-19, cumulative = 2.97275e-18
DICPCG:  Solving for p, Initial residual = 1.22267e-06, Final residual = 5.56736e-07, No Iterations 1
time step continuity errors : sum local = 1.66152e-10, global = 3.63557e-20, cumulative = 3.00911e-18
ExecutionTime = 24.45 s  ClockTime = 26 s

Time = 0.494375

Courant Number mean: 0.289738 max: 0.975039
smoothSolver:  Solving for Ux, Initial residual = 7.77361e-07, Final residual = 7.77361e-07, No Iterations 0
smoothSolver:  Solving for Uy, Initial residual = 2.23594e-06, Final residual = 2.23594e-06, No Iterations 0
DICPCG:  Solving for p, Initial residual = 9.00366e-07, Final residual = 9.00366e-07, No Iterations 0
time step continuity errors : sum local = 2.66489e-10, global = 2.05895e-19, cumulative = 3.21501e-18
DICPCG:  Solving for p, Initial residual = 1.10857e-06, Final residual = 5.863e-07, No Iterations 1
time step continuity errors : sum local = 1.74788e-10, global = 4.84196e-20, cumulative = 3.26342e-18
ExecutionTime = 24.46 s  ClockTime = 26 s

Time = 0.495

Courant Number mean: 0.289738 max: 0.975039
smoothSolver:  Solving for Ux, Initial residual = 7.74984e-07, Final residual = 7.74984e-07, No Iterations 0
smoothSolver:  Solving for Uy, Initial residual = 2.23023e-06, Final residual = 2.23023e-06, No Iterations 0
DICPCG:  Solving for p, Initial residual = 9.1199e-07, Final residual = 9.1199e-07, No Iterations 0
time step continuity errors : sum local = 2.69887e-10, global = 1.29739e-19, cumulative = 3.39316e-18
DICPCG:  Solving for p, Initial residual = 1.10687e-06, Final residual = 5.94193e-07, No Iterations 1
time step continuity errors : sum local = 1.77099e-10, global = -2.46923e-20, cumulative = 3.36847e-18
ExecutionTime = 24.46 s  ClockTime = 26 s

Time = 0.495625

Courant Number mean: 0.289738 max: 0.975039
smoothSolver:  Solving for Ux, Initial residual = 7.72638e-07, Final residual = 7.72638e-07, No Iterations 0
smoothSolver:  Solving for Uy, Initial residual = 2.22471e-06, Final residual = 2.22471e-06, No Iterations 0
DICPCG:  Solving for p, Initial residual = 9.28727e-07, Final residual = 9.28727e-07, No Iterations 0
time step continuity errors : sum local = 2.74781e-10, global = 1.63276e-19, cumulative = 3.53175e-18
DICPCG:  Solving for p, Initial residual = 1.12874e-06, Final residual = 5.98863e-07, No Iterations 1
time step continuity errors : sum local = 1.78475e-10, global = 4.3199e-20, cumulative = 3.57495e-18
ExecutionTime = 24.47 s  ClockTime = 26 s

Time = 0.49625

Courant Number mean: 0.289738 max: 0.975039
smoothSolver:  Solving for Ux, Initial residual = 7.70337e-07, Final residual = 7.70337e-07, No Iterations 0
smoothSolver:  Solving for Uy, Initial residual = 2.2189e-06, Final residual = 2.2189e-06, No Iterations 0
DICPCG:  Solving for p, Initial residual = 9.40113e-07, Final residual = 9.40113e-07, No Iterations 0
time step continuity errors : sum local = 2.78118e-10, global = 9.99179e-20, cumulative = 3.67486e-18
DICPCG:  Solving for p, Initial residual = 1.1435e-06, Final residual = 6.09571e-07, No Iterations 1
time step continuity errors : sum local = 1.81617e-10, global = 2.80342e-19, cumulative = 3.95521e-18
ExecutionTime = 24.47 s  ClockTime = 26 s

Time = 0.496875

Courant Number mean: 0.289738 max: 0.975039
smoothSolver:  Solving for Ux, Initial residual = 7.68039e-07, Final residual = 7.68039e-07, No Iterations 0
smoothSolver:  Solving for Uy, Initial residual = 2.213e-06, Final residual = 2.213e-06, No Iterations 0
DICPCG:  Solving for p, Initial residual = 9.57056e-07, Final residual = 9.57056e-07, No Iterations 0
time step continuity errors : sum local = 2.83081e-10, global = 1.16938e-20, cumulative = 3.9669e-18
DICPCG:  Solving for p, Initial residual = 1.16406e-06, Final residual = 6.20917e-07, No Iterations 1
time step continuity errors : sum local = 1.84951e-10, global = -4.36484e-20, cumulative = 3.92325e-18
ExecutionTime = 24.48 s  ClockTime = 26 s

Time = 0.4975

Courant Number mean: 0.289738 max: 0.975039
smoothSolver:  Solving for Ux, Initial residual = 7.6579e-07, Final residual = 7.6579e-07, No Iterations 0
smoothSolver:  Solving for Uy, Initial residual = 2.20688e-06, Final residual = 2.20688e-06, No Iterations 0
DICPCG:  Solving for p, Initial residual = 9.78185e-07, Final residual = 9.78185e-07, No Iterations 0
time step continuity errors : sum local = 2.89271e-10, global = -2.95004e-19, cumulative = 3.62825e-18
DICPCG:  Solving for p, Initial residual = 1.19091e-06, Final residual = 6.33859e-07, No Iterations 1
time step continuity errors : sum local = 1.88754e-10, global = -7.46646e-20, cumulative = 3.55358e-18
ExecutionTime = 24.49 s  ClockTime = 26 s

Time = 0.498125

Courant Number mean: 0.289738 max: 0.975039
smoothSolver:  Solving for Ux, Initial residual = 7.63539e-07, Final residual = 7.63539e-07, No Iterations 0
smoothSolver:  Solving for Uy, Initial residual = 2.20062e-06, Final residual = 2.20062e-06, No Iterations 0
DICPCG:  Solving for p, Initial residual = 1.00286e-06, Final residual = 7.12622e-07, No Iterations 1
time step continuity errors : sum local = 2.11779e-10, global = 8.80263e-21, cumulative = 3.56239e-18
DICPCG:  Solving for p, Initial residual = 9.37287e-07, Final residual = 9.37287e-07, No Iterations 0
time step continuity errors : sum local = 2.77382e-10, global = 2.75644e-20, cumulative = 3.58995e-18
ExecutionTime = 24.49 s  ClockTime = 26 s

Time = 0.49875

Courant Number mean: 0.289738 max: 0.975039
smoothSolver:  Solving for Ux, Initial residual = 7.61211e-07, Final residual = 7.61211e-07, No Iterations 0
smoothSolver:  Solving for Uy, Initial residual = 2.19312e-06, Final residual = 2.19312e-06, No Iterations 0
DICPCG:  Solving for p, Initial residual = 1.08361e-06, Final residual = 6.94063e-07, No Iterations 1
time step continuity errors : sum local = 2.06394e-10, global = -1.84883e-19, cumulative = 3.40507e-18
DICPCG:  Solving for p, Initial residual = 1.07458e-06, Final residual = 7.01573e-07, No Iterations 1
time step continuity errors : sum local = 2.08621e-10, global = -1.76452e-19, cumulative = 3.22862e-18
ExecutionTime = 24.5 s  ClockTime = 26 s

Time = 0.499375

Courant Number mean: 0.289738 max: 0.975039
smoothSolver:  Solving for Ux, Initial residual = 7.59234e-07, Final residual = 7.59234e-07, No Iterations 0
smoothSolver:  Solving for Uy, Initial residual = 2.18177e-06, Final residual = 2.18177e-06, No Iterations 0
DICPCG:  Solving for p, Initial residual = 9.37283e-07, Final residual = 9.37283e-07, No Iterations 0
time step continuity errors : sum local = 2.77449e-10, global = -3.80375e-20, cumulative = 3.19058e-18
DICPCG:  Solving for p, Initial residual = 1.0766e-06, Final residual = 7.12182e-07, No Iterations 1
time step continuity errors : sum local = 2.11758e-10, global = 9.13269e-20, cumulative = 3.2819e-18
ExecutionTime = 24.5 s  ClockTime = 26 s

Time = 0.5

Courant Number mean: 0.289738 max: 0.975039
smoothSolver:  Solving for Ux, Initial residual = 7.57151e-07, Final residual = 7.57151e-07, No Iterations 0
smoothSolver:  Solving for Uy, Initial residual = 2.17526e-06, Final residual = 2.17526e-06, No Iterations 0
DICPCG:  Solving for p, Initial residual = 1.11006e-06, Final residual = 6.97946e-07, No Iterations 1
time step continuity errors : sum local = 2.0764e-10, global = -5.2799e-20, cumulative = 3.22911e-18
DICPCG:  Solving for p, Initial residual = 9.41915e-07, Final residual = 9.41915e-07, No Iterations 0
time step continuity errors : sum local = 2.78879e-10, global = 1.65574e-19, cumulative = 3.39468e-18
ExecutionTime = 24.54 s  ClockTime = 26 s

End

